
Note: Compatibility modes selected: hs a


Circuit: ** sch_path: /foss/designs/sky130_op_amp/runs/run_2025-10-21_18-52-57/parameters/slew_rate/run_38/transient.sch

option SCALE: Scale is set to 1e-06 for instance and model parameters
option SCALE: Scale is set to 1e-06 for instance and model parameters
option SCALE: Scale is set to 1e-06 for instance and model parameters
option SCALE: Scale is set to 1e-06 for instance and model parameters
Doing analysis at TEMP = 130.000000 and TNOM = 27.000000

Using SPARSE 1.3 as Direct Linear Solver

Initial Transient Solution
--------------------------

Node                                   Voltage
----                                   -------
vdd                                        1.9
ibias                                 0.646797
vout                               1.32772e-05
vss                                          0
vn                                 1.32772e-05
vp                                           0
x1.a_8862_4192.t27                  0.00136883
x1.en.t0                                   1.9
x1.vss.t311                        9.30055e-05
x1.vss.t215                         5.4737e-05
x1.vdd.t97                                 1.9
x1.vdd.t96                                 1.9
x1.vdd.t44                                 1.9
x1.vdd.t95                                 1.9
x1.vdd.t93                                 1.9
x1.vdd.t94                                 1.9
x1.vdd.t47                                 1.9
x1.a_3868_4185.t39                 1.21355e-05
x1.ibias.t10                          0.646777
x1.a_3329_8823.t39                 1.24109e-05
x1.vss.t0                          1.41666e-05
x1.a_n1962_4406.t59                1.22441e-05
x1.ibias.t11                          0.646777
x1.vout.t21                        1.32434e-05
x1.vss.t6                          1.22145e-05
x1.a_n1962_4406.t58                1.22441e-05
x1.ibias.t12                          0.646777
x1.vout.t53                        1.32437e-05
x1.vss.t211                        5.35373e-05
x1.vss.t209                        5.36968e-05
x1.vss.t210                        6.85649e-05
x1.vss.t30                         5.01462e-05
x1.a_3329_8823.t38                 1.24109e-05
x1.ibias.t13                          0.646777
x1.a_3868_4185.t38                 1.21355e-05
x1.vss.t1                          1.40046e-05
x1.vss.t208                        1.22041e-05
x1.vss.t207                        1.22039e-05
x1.vss.t64                          1.4094e-05
x1.vdd.t92                                 1.9
x1.vdd.t91                                 1.9
x1.vdd.t71                                 1.9
x1.a_3868_4185.t37                 1.21355e-05
x1.ibias.t14                          0.646777
x1.a_3329_8823.t8                  1.24109e-05
x1.vss.t11                         1.38446e-05
x1.a_n735_8972.t23                      1.6094
x1.vp.t0                                     0
x1.a_3329_8823.t56                 1.24144e-05
x1.vss.t2                          1.36002e-05
x1.vss.t310                        1.21246e-05
x1.en.t1                                   1.9
x1.a_n1962_4406.t123               1.22426e-05
x1.vss.t77                          1.2221e-05
x1.a_3868_4185.t36                 1.21348e-05
x1.ibias.t15                          0.646777
x1.a_3329_8823.t17                 1.24109e-05
x1.vss.t7                           1.4539e-05
x1.a_3329_8823.t66                 1.24145e-05
x1.vn.t0                           1.32772e-05
x1.a_n935_8875.t15                     1.60863
x1.vss.t4                          1.37189e-05
x1.vdd.t19                                 1.9
x1.a_n735_8972.t27                      1.6094
x1.vout.t67                        1.32917e-05
x1.vdd.t15                                 1.9
x1.a_n1962_4406.t122               1.22436e-05
x1.en.t2                                   1.9
x1.vss.t309                        1.21246e-05
x1.vss.t8                            1.222e-05
x1.a_3329_8823.t65                 1.24144e-05
x1.vn.t1                           1.32772e-05
x1.a_n935_8875.t14                     1.60863
x1.vss.t5                           1.3482e-05
x1.vdd.t36                                 1.9
x1.a_n735_8972.t28                      1.6094
x1.vout.t77                        1.32907e-05
x1.vdd.t5                                  1.9
x1.vss.t206                        1.22039e-05
x1.vss.t205                        1.22039e-05
x1.a_3329_8823.t55                  1.2414e-05
x1.a_n1962_4406.t57                1.22466e-05
x1.ibias.t16                          0.646777
x1.vout.t45                        1.32431e-05
x1.vss.t212                        1.22162e-05
x1.a_n1962_4406.t56                1.22442e-05
x1.ibias.t17                          0.646777
x1.vout.t2                         1.32432e-05
x1.vss.t308                        1.21246e-05
x1.en.t3                                   1.9
x1.a_n1962_4406.t121               1.22436e-05
x1.vss.t19                         1.22172e-05
x1.a_3329_8823.t43                 1.24144e-05
x1.vn.t2                           1.32772e-05
x1.a_n935_8875.t13                     1.60863
x1.vdd.t90                                 1.9
x1.vdd.t89                                 1.9
x1.a_n1962_4406.t79                1.22453e-05
x1.vss.t203                        1.21106e-05
x1.vss.t204                        1.21106e-05
x1.vss.t20                         1.22181e-05
x1.a_n1962_4406.t120               1.22436e-05
x1.en.t4                                   1.9
x1.vss.t307                        1.21263e-05
x1.vout.t38                        1.32432e-05
x1.ibias.t18                          0.646777
x1.a_n1962_4406.t55                1.22442e-05
x1.vss.t12                          1.2219e-05
x1.vss.t202                        1.21106e-05
x1.vss.t201                        1.21106e-05
x1.a_n1962_4406.t78                1.22429e-05
x1.vss.t56                         1.22231e-05
x1.vdd.t88                                 1.9
x1.vdd.t87                                 1.9
x1.a_n935_8875.t12                     1.60863
x1.vn.t3                           1.32772e-05
x1.a_3329_8823.t62                  1.2414e-05
x1.vss.t84                         1.33351e-05
x1.vout.t46                        1.32431e-05
x1.ibias.t19                          0.646777
x1.a_n1962_4406.t54                1.22466e-05
x1.vss.t9                          1.22153e-05
x1.vdd.t86                                 1.9
x1.vdd.t84                                 1.9
x1.vdd.t85                                 1.9
x1.a_3329_8823.t63                 1.24141e-05
x1.vp.t1                                     0
x1.a_n735_8972.t22                      1.6094
x1.vss.t89                         1.39575e-05
x1.vss.t306                        1.21263e-05
x1.en.t5                                   1.9
x1.a_n1962_4406.t119               1.22437e-05
x1.vdd.t17                                 1.9
x1.a_n735_8972.t29                      1.6094
x1.vout.t65                        1.32928e-05
x1.vdd.t16                                 1.9
x1.a_n735_8972.t30                      1.6094
x1.vout.t64                        1.32926e-05
x1.vss.t198                        1.21106e-05
x1.vss.t197                        1.21106e-05
x1.a_n1962_4406.t53                1.22455e-05
x1.ibias.t20                          0.646777
x1.vout.t42                        1.32431e-05
x1.vss.t45                         1.22158e-05
x1.vout.t35                        1.32431e-05
x1.ibias.t21                          0.646777
x1.a_n1962_4406.t52                1.22442e-05
x1.vss.t16                         1.22136e-05
x1.vss.t200                        1.20872e-05
x1.vss.t199                        1.20872e-05
x1.a_3868_4185.t55                 1.21344e-05
x1.vss.t27                         1.57193e-05
x1.vss.t196                        1.20872e-05
x1.vss.t195                        1.20872e-05
x1.a_3868_4185.t54                 1.21344e-05
x1.a_n1962_4406.t77                1.22453e-05
x1.vss.t193                        1.21106e-05
x1.vss.t194                        1.21106e-05
x1.vss.t38                         1.22222e-05
x1.a_3329_8823.t42                 1.24144e-05
x1.vn.t4                           1.32772e-05
x1.a_n935_8875.t11                     1.60863
x1.a_n1962_4406.t118               1.22436e-05
x1.en.t6                                   1.9
x1.vss.t305                        1.21246e-05
x1.vss.t15                         1.22133e-05
x1.a_n1962_4406.t117               1.22436e-05
x1.en.t7                                   1.9
x1.vss.t304                        1.21211e-05
x1.vss.t192                        7.03635e-05
x1.vss.t191                        6.30189e-05
x1.vss.t22                         5.73666e-05
x1.a_n735_8972.t21                      1.6094
x1.vp.t2                                     0
x1.a_3329_8823.t73                 1.24143e-05
x1.vss.t313                        1.39904e-05
x1.a_n1962_4406.t51                1.22442e-05
x1.ibias.t22                          0.646777
x1.vout.t9                         1.32434e-05
x1.a_n1962_4406.t116               1.22436e-05
x1.en.t8                                   1.9
x1.vss.t303                        1.21175e-05
x1.a_3329_8823.t35                 1.24111e-05
x1.ibias.t23                          0.646777
x1.a_3868_4185.t35                 1.21353e-05
x1.vss.t14                         1.36829e-05
x1.ibias.t7                           0.646563
x1.ibias.t6                           0.646765
x1.a_8862_4192.t0                   0.00159895
x1.vss.t214                        5.33332e-05
x1.vss.t302                        0.000103847
x1.en.t9                                   1.9
x1.a_8862_4192.t26                   0.0013681
x1.a_n935_8875.t33                     1.60863
x1.a_n935_8875.t32                     1.60863
x1.vdd.t110                                1.9
x1.vdd.t8                                  1.9
x1.a_n1962_4406.t50                1.22442e-05
x1.ibias.t24                          0.646777
x1.vout.t3                         1.32437e-05
x1.vss.t190                        1.21106e-05
x1.vss.t188                        1.21106e-05
x1.vss.t189                        1.21106e-05
x1.vout.t0                         1.32434e-05
x1.ibias.t25                          0.646777
x1.a_n1962_4406.t49                1.22442e-05
x1.vout.t6                         1.32437e-05
x1.ibias.t26                          0.646777
x1.a_n1962_4406.t48                1.22442e-05
x1.a_3868_4185.t53                 1.21352e-05
x1.vss.t186                        1.20872e-05
x1.vss.t187                        1.20872e-05
x1.vss.t51                         1.35142e-05
x1.a_8862_4192.t25                  0.00136803
x1.en.t10                                  1.9
x1.vss.t301                        7.70621e-05
x1.vss.t219                        5.18429e-05
x1.vss.t185                        5.90666e-05
x1.vss.t183                        5.91531e-05
x1.vss.t184                        7.40047e-05
x1.vdd.t7                                  1.9
x1.a_n735_8972.t31                      1.6094
x1.vout.t62                        1.32918e-05
x1.a_n735_8972.t7                       1.6094
x1.x62.x0.t1                            1.6094
x1.x62.x0.t2                            1.6094
x1.a_9909_7861.t0                       1.6094
x1.vss.t218                        5.90481e-05
x1.x62.x0.rbody_3                            0
x1.a_3868_4185.t34                 1.21352e-05
x1.ibias.t27                          0.646777
x1.a_3329_8823.t4                   1.2411e-05
x1.vss.t10                         1.51779e-05
x1.a_8862_4192.t3                   0.00159895
x1.ibias.t4                           0.646765
x1.ibias.t5                           0.646652
x1.vss.t300                        1.21279e-05
x1.en.t11                                  1.9
x1.a_n1962_4406.t115               1.22437e-05
x1.vss.t17                         1.22137e-05
x1.a_n1962_4406.t114               1.22425e-05
x1.en.t12                                  1.9
x1.vss.t299                        1.21192e-05
x1.vss.t182                        1.21106e-05
x1.vss.t181                        1.21106e-05
x1.a_n735_8972.t24                      1.6094
x1.a_n935_8875.t34                     1.60863
x1.vdd.t103                                1.9
x1.vdd.t30                                 1.9
x1.vss.t180                        1.22039e-05
x1.vss.t179                        1.22039e-05
x1.a_3329_8823.t54                  1.2414e-05
x1.a_3329_8823.t2                   1.2411e-05
x1.ibias.t28                          0.646777
x1.a_3868_4185.t33                 1.21355e-05
x1.vss.t13                          1.4827e-05
x1.vss.t178                        6.88946e-05
x1.vss.t177                        6.15423e-05
x1.vss.t293                        1.20934e-05
x1.en.t13                                  1.9
x1.a_3868_4185.t79                 1.21346e-05
x1.vss.t18                          1.4337e-05
x1.a_n935_8875.t10                     1.60863
x1.vn.t5                           1.32772e-05
x1.a_3329_8823.t64                 1.24144e-05
x1.vss.t298                        1.21192e-05
x1.en.t14                                  1.9
x1.a_n1962_4406.t113               1.22435e-05
x1.vss.t176                        1.21106e-05
x1.vss.t175                        1.21106e-05
x1.a_n1962_4406.t76                1.22453e-05
x1.a_3329_8823.t71                 1.24141e-05
x1.vn.t6                           1.32772e-05
x1.a_n935_8875.t9                      1.60863
x1.vdd.t83                                 1.9
x1.vdd.t82                                 1.9
x1.a_3868_4185.t78                 1.21346e-05
x1.en.t15                                  1.9
x1.vss.t297                        1.20935e-05
x1.a_3868_4185.t77                 1.21346e-05
x1.en.t16                                  1.9
x1.vss.t296                        1.20935e-05
x1.vdd.t33                                 1.9
x1.a_n735_8972.t32                      1.6094
x1.vout.t75                        1.32928e-05
x1.vss.t295                        9.15915e-05
x1.en.t17                                  1.9
x1.a_8862_4192.t24                   0.0013674
x1.a_3329_8823.t28                 1.24109e-05
x1.ibias.t29                          0.646777
x1.a_3868_4185.t32                 1.21352e-05
x1.a_3329_8823.t77                 1.24145e-05
x1.vp.t3                                     0
x1.a_n735_8972.t20                      1.6094
x1.vdd.t105                                1.9
x1.a_n735_8972.t33                      1.6094
x1.vout.t86                        1.32921e-05
x1.a_3868_4185.t31                 1.21348e-05
x1.ibias.t30                          0.646777
x1.a_3329_8823.t11                 1.24109e-05
x1.a_n1962_4406.t112               1.22436e-05
x1.en.t18                                  1.9
x1.vss.t294                        1.21229e-05
x1.a_8862_4192.t23                  0.00136735
x1.en.t19                                  1.9
x1.vss.t292                        7.22279e-05
x1.vss.t174                        5.45746e-05
x1.vss.t172                        5.45956e-05
x1.vss.t173                        6.93221e-05
x1.a_3329_8823.t12                 1.24109e-05
x1.ibias.t31                          0.646777
x1.a_3868_4185.t30                 1.21348e-05
x1.a_3868_4185.t52                 1.21352e-05
x1.vss.t170                        1.20872e-05
x1.vss.t171                        1.20872e-05
x1.vout.t49                        1.32436e-05
x1.ibias.t32                          0.646777
x1.a_n1962_4406.t47                1.22441e-05
x1.vout.t28                        1.32439e-05
x1.ibias.t33                          0.646777
x1.a_n1962_4406.t46                1.22441e-05
x1.a_n1962_4406.t45                1.22455e-05
x1.ibias.t34                          0.646777
x1.vout.t57                        1.32441e-05
x1.a_3868_4185.t76                 1.21343e-05
x1.en.t20                                  1.9
x1.vss.t291                        1.20934e-05
x1.a_3329_8823.t61                 1.24144e-05
x1.vp.t4                                     0
x1.a_n735_8972.t19                      1.6094
x1.vout.t69                        1.32928e-05
x1.a_n735_8972.t34                      1.6094
x1.vdd.t23                                 1.9
x1.vdd.t13                                 1.9
x1.vss.t130                        1.21106e-05
x1.vss.t129                        1.21106e-05
x1.a_3868_4185.t75                 1.21346e-05
x1.en.t21                                  1.9
x1.vss.t290                        1.20934e-05
x1.vss.t289                        1.20934e-05
x1.en.t22                                  1.9
x1.a_3868_4185.t74                 1.21346e-05
x1.vout.t54                        1.32432e-05
x1.ibias.t35                          0.646777
x1.a_n1962_4406.t44                1.22455e-05
x1.a_3868_4185.t29                 1.21355e-05
x1.ibias.t36                          0.646777
x1.a_3329_8823.t18                 1.24109e-05
x1.vss.t169                        1.21106e-05
x1.vss.t168                        1.21106e-05
x1.a_n1962_4406.t43                1.22442e-05
x1.ibias.t37                          0.646777
x1.vout.t52                        1.32432e-05
x1.vout.t25                        1.32431e-05
x1.ibias.t38                          0.646777
x1.a_n1962_4406.t42                1.22456e-05
x1.vss.t167                        1.21106e-05
x1.vss.t166                        1.21106e-05
x1.vout.t26                        1.32432e-05
x1.ibias.t39                          0.646777
x1.a_n1962_4406.t41                1.22442e-05
x1.vss.t165                        1.21106e-05
x1.vss.t164                        1.21106e-05
x1.a_n1962_4406.t75                1.22453e-05
x1.vss.t288                        1.21263e-05
x1.en.t23                                  1.9
x1.a_n1962_4406.t111               1.22436e-05
x1.a_n935_8875.t8                      1.60863
x1.vn.t7                           1.32772e-05
x1.a_3329_8823.t46                 1.24145e-05
x1.vss.t3                           1.3837e-05
x1.vdd.t81                                 1.9
x1.vdd.t80                                 1.9
x1.vss.t287                        1.21211e-05
x1.en.t24                                  1.9
x1.a_n1962_4406.t110               1.22425e-05
x1.vss.t286                        1.21175e-05
x1.en.t25                                  1.9
x1.a_n1962_4406.t109               1.22425e-05
x1.vdd.t106                                1.9
x1.a_n935_8875.t35                     1.60863
x1.a_n735_8972.t25                      1.6094
x1.vdd.t11                                 1.9
x1.a_n1962_4406.t40                1.22455e-05
x1.ibias.t40                          0.646777
x1.vout.t58                        1.32432e-05
x1.vss.t163                        1.22041e-05
x1.vss.t161                         1.2204e-05
x1.vss.t162                        1.43211e-05
x1.vdd.t25                                 1.9
x1.a_n735_8972.t35                      1.6094
x1.vout.t71                        1.32913e-05
x1.vss.t160                        1.21106e-05
x1.vss.t158                        1.21106e-05
x1.vss.t159                        1.21106e-05
x1.a_n1962_4406.t108               1.22435e-05
x1.en.t26                                  1.9
x1.vss.t285                        1.21212e-05
x1.a_3329_8823.t27                  1.2411e-05
x1.ibias.t41                          0.646777
x1.a_3868_4185.t28                 1.21348e-05
x1.a_n935_8875.t31                     1.60863
x1.a_n935_8875.t30                     1.60863
x1.vdd.t37                                 1.9
x1.a_n1962_4406.t39                1.22456e-05
x1.ibias.t42                          0.646777
x1.vout.t13                         1.3243e-05
x1.vout.t16                        1.32432e-05
x1.ibias.t43                          0.646777
x1.a_n1962_4406.t38                1.22442e-05
x1.a_n1962_4406.t37                1.22442e-05
x1.ibias.t44                          0.646777
x1.vout.t22                        1.32433e-05
x1.a_n1962_4406.t107               1.22434e-05
x1.en.t27                                  1.9
x1.vss.t284                        1.21176e-05
x1.a_3329_8823.t0                   1.2411e-05
x1.ibias.t45                          0.646777
x1.a_3868_4185.t27                 1.21348e-05
x1.a_n735_8972.t18                      1.6094
x1.vp.t5                                     0
x1.a_3329_8823.t47                 1.24144e-05
x1.vss.t157                        1.22043e-05
x1.vss.t155                         1.2204e-05
x1.a_n735_8972.t4                       1.6094
x1.vss.t156                         1.4152e-05
x1.vout.t73                        1.32928e-05
x1.a_n735_8972.t36                      1.6094
x1.vdd.t27                                 1.9
x1.a_n1962_4406.t36                1.22442e-05
x1.ibias.t46                          0.646777
x1.vout.t39                        1.32431e-05
x1.a_n1962_4406.t106               1.22436e-05
x1.en.t28                                  1.9
x1.vss.t280                        1.21229e-05
x1.vss.t281                        1.21211e-05
x1.en.t29                                  1.9
x1.a_n1962_4406.t105               1.22436e-05
x1.vss.t283                        1.21175e-05
x1.en.t30                                  1.9
x1.a_n1962_4406.t104               1.22436e-05
x1.vss.t282                        0.000102951
x1.en.t31                                  1.9
x1.a_8862_4192.t22                  0.00136764
x1.a_3329_8823.t53                 1.24139e-05
x1.vss.t153                        1.22038e-05
x1.vss.t154                        1.22038e-05
x1.vss.t61                         1.31532e-05
x1.vout.t14                        1.32434e-05
x1.ibias.t47                          0.646777
x1.a_n1962_4406.t35                1.22441e-05
x1.vss.t152                        1.21106e-05
x1.vss.t151                        1.21106e-05
x1.a_n1962_4406.t74                1.22429e-05
x1.vout.t17                        1.32437e-05
x1.ibias.t48                          0.646777
x1.a_n1962_4406.t34                1.22441e-05
x1.vss.t150                        1.21106e-05
x1.vss.t149                        1.21106e-05
x1.vss.t279                        1.21229e-05
x1.en.t32                                  1.9
x1.a_n1962_4406.t103               1.22436e-05
x1.a_n1962_4406.t33                1.22467e-05
x1.ibias.t49                          0.646777
x1.vout.t50                        1.32441e-05
x1.a_3868_4185.t73                 1.21346e-05
x1.en.t33                                  1.9
x1.vss.t278                        1.20935e-05
x1.vss.t274                        1.20935e-05
x1.en.t34                                  1.9
x1.a_3868_4185.t72                 1.21343e-05
x1.vss.t277                        1.20935e-05
x1.en.t35                                  1.9
x1.a_3868_4185.t71                 1.21343e-05
x1.a_n935_8875.t29                     1.60863
x1.a_n935_8875.t28                     1.60863
x1.vdd.t29                                 1.9
x1.vdd.t79                                 1.9
x1.vdd.t78                                 1.9
x1.a_n1962_4406.t32                1.22467e-05
x1.ibias.t50                          0.646777
x1.vout.t29                        1.32441e-05
x1.a_8862_4192.t21                  0.00136757
x1.en.t36                                  1.9
x1.vss.t276                        7.76531e-05
x1.a_3868_4185.t70                 1.21346e-05
x1.en.t37                                  1.9
x1.vss.t275                        1.20935e-05
x1.vss.t148                        1.20872e-05
x1.vss.t147                        1.20872e-05
x1.a_3868_4185.t51                 1.21352e-05
x1.vdd.t22                                 1.9
x1.a_n935_8875.t26                     1.60863
x1.a_n935_8875.t27                     1.60863
x1.vdd.t0                                  1.9
x1.vout.t23                        1.32441e-05
x1.ibias.t51                          0.646777
x1.a_n1962_4406.t31                1.22467e-05
x1.vss.t273                        1.20935e-05
x1.en.t38                                  1.9
x1.a_3868_4185.t69                 1.21346e-05
x1.a_3868_4185.t50                 1.21344e-05
x1.vss.t145                        1.20872e-05
x1.vss.t146                        1.20872e-05
x1.vss.t144                        5.79348e-05
x1.vss.t142                        5.80789e-05
x1.vss.t143                        7.29005e-05
x1.a_3868_4185.t49                 1.21344e-05
x1.vss.t140                        1.20872e-05
x1.vss.t141                        1.20872e-05
x1.vss.t272                        1.20935e-05
x1.en.t39                                  1.9
x1.a_3868_4185.t68                 1.21346e-05
x1.vss.t271                        1.21246e-05
x1.en.t40                                  1.9
x1.a_n1962_4406.t102               1.22436e-05
x1.a_3868_4185.t26                 1.21352e-05
x1.ibias.t52                          0.646777
x1.a_3329_8823.t14                  1.2411e-05
x1.a_3868_4185.t25                 1.21352e-05
x1.ibias.t53                          0.646777
x1.a_3329_8823.t24                  1.2411e-05
x1.a_3329_8823.t67                 1.24143e-05
x1.vn.t8                           1.32772e-05
x1.a_n935_8875.t7                      1.60863
x1.vss.t217                        1.38303e-05
x1.a_3868_4185.t24                 1.21348e-05
x1.ibias.t54                          0.646777
x1.a_3329_8823.t34                  1.2411e-05
x1.vdd.t77                                 1.9
x1.vdd.t76                                 1.9
x1.a_n1962_4406.t73                1.22453e-05
x1.vss.t138                        1.21106e-05
x1.vss.t139                        1.21106e-05
x1.a_n1962_4406.t72                1.22453e-05
x1.vss.t136                        1.21106e-05
x1.vss.t137                        1.21106e-05
x1.ibias.t3                           0.646658
x1.ibias.t2                           0.646769
x1.a_8862_4192.t2                   0.00159896
x1.vss.t216                        5.60879e-05
x1.vss.t270                        7.57776e-05
x1.en.t41                                  1.9
x1.a_8862_4192.t20                  0.00136801
x1.a_3868_4185.t23                 1.21348e-05
x1.ibias.t55                          0.646777
x1.a_3329_8823.t5                   1.2411e-05
x1.a_3329_8823.t9                   1.2411e-05
x1.ibias.t56                          0.646777
x1.a_3868_4185.t22                 1.21348e-05
x1.a_n1962_4406.t101               1.22435e-05
x1.en.t42                                  1.9
x1.vss.t269                        1.21211e-05
x1.a_n1962_4406.t100               1.22435e-05
x1.en.t43                                  1.9
x1.vss.t268                        1.21175e-05
x1.a_3329_8823.t13                  1.2411e-05
x1.ibias.t57                          0.646777
x1.a_3868_4185.t21                 1.21348e-05
x1.vdd.t75                                 1.9
x1.vdd.t73                                 1.9
x1.vdd.t74                                 1.9
x1.vdd.t40                                 1.9
x1.vss.t267                        9.25227e-05
x1.en.t44                                  1.9
x1.a_8862_4192.t19                  0.00136789
x1.a_8862_4192.t18                  0.00136809
x1.en.t45                                  1.9
x1.vss.t266                        0.000103847
x1.vdd.t101                                1.9
x1.a_n735_8972.t37                      1.6094
x1.vout.t83                        1.32924e-05
x1.a_n1962_4406.t30                1.22443e-05
x1.ibias.t58                          0.646777
x1.vout.t55                        1.32431e-05
x1.a_8862_4192.t1                   0.00159896
x1.ibias.t0                           0.646766
x1.ibias.t1                           0.646563
x1.a_3329_8823.t1                  1.24109e-05
x1.ibias.t59                          0.646777
x1.a_3868_4185.t20                 1.21352e-05
x1.vdd.t109                                1.9
x1.a_n935_8875.t36                     1.60863
x1.a_n735_8972.t26                      1.6094
x1.a_8862_4192.t17                  0.00136783
x1.en.t46                                  1.9
x1.vss.t265                        7.29845e-05
x1.vss.t135                        5.55033e-05
x1.vss.t133                        5.54011e-05
x1.vss.t134                        7.00074e-05
x1.vout.t81                        1.32917e-05
x1.a_n735_8972.t38                      1.6094
x1.vdd.t99                                 1.9
x1.vss.t128                        1.20872e-05
x1.vss.t127                        1.20872e-05
x1.a_3868_4185.t48                 1.21344e-05
x1.a_3868_4185.t47                 1.21352e-05
x1.vss.t131                        1.20872e-05
x1.vss.t132                        1.20872e-05
x1.a_n935_8875.t25                     1.60863
x1.a_n935_8875.t24                     1.60863
x1.vdd.t31                                 1.9
x1.a_3868_4185.t19                 1.21352e-05
x1.ibias.t60                          0.646777
x1.a_3329_8823.t25                 1.24109e-05
x1.a_3329_8823.t52                 1.24139e-05
x1.vss.t125                        1.22038e-05
x1.vss.t126                        1.22038e-05
x1.vss.t248                        7.29501e-05
x1.en.t47                                  1.9
x1.a_8862_4192.t16                  0.00136736
x1.a_3329_8823.t6                  1.24109e-05
x1.ibias.t61                          0.646777
x1.a_3868_4185.t18                 1.21355e-05
x1.vdd.t72                                 1.9
x1.vdd.t70                                 1.9
x1.a_3868_4185.t67                 1.21346e-05
x1.en.t48                                  1.9
x1.vss.t264                        1.20934e-05
x1.vout.t63                        1.32926e-05
x1.a_n735_8972.t39                      1.6094
x1.vdd.t14                                 1.9
x1.vout.t68                        1.32911e-05
x1.a_n735_8972.t40                      1.6094
x1.vdd.t20                                 1.9
x1.vdd.t2                                  1.9
x1.a_n1962_4406.t99                1.22435e-05
x1.en.t49                                  1.9
x1.vss.t263                        1.21193e-05
x1.a_8862_4192.t15                  0.00136741
x1.en.t50                                  1.9
x1.vss.t262                        9.15916e-05
x1.vss.t124                        1.22039e-05
x1.vss.t123                        1.22039e-05
x1.a_3329_8823.t51                  1.2414e-05
x1.a_n1962_4406.t98                1.22435e-05
x1.en.t51                                  1.9
x1.vss.t261                        1.21156e-05
x1.vdd.t69                                 1.9
x1.vdd.t67                                 1.9
x1.vdd.t68                                 1.9
x1.a_3329_8823.t58                 1.24141e-05
x1.vp.t6                                     0
x1.a_n735_8972.t17                      1.6094
x1.vss.t122                        1.21106e-05
x1.vss.t121                        1.21106e-05
x1.a_n1962_4406.t71                1.22453e-05
x1.a_3329_8823.t79                 1.24141e-05
x1.vn.t9                           1.32772e-05
x1.a_n935_8875.t6                      1.60863
x1.vout.t40                        1.32434e-05
x1.ibias.t62                          0.646777
x1.a_n1962_4406.t29                1.22455e-05
x1.a_n935_8875.t5                      1.60863
x1.vn.t10                          1.32772e-05
x1.a_3329_8823.t70                 1.24143e-05
x1.vdd.t66                                 1.9
x1.vdd.t64                                 1.9
x1.vdd.t65                                 1.9
x1.a_n735_8972.t5                       1.6094
x1.a_n935_8875.t37                     1.60863
x1.vdd.t28                                 1.9
x1.vout.t66                         1.3292e-05
x1.a_n735_8972.t41                      1.6094
x1.vdd.t18                                 1.9
x1.vss.t120                        1.21106e-05
x1.vss.t119                        1.21106e-05
x1.a_n1962_4406.t97                1.22426e-05
x1.en.t52                                  1.9
x1.vss.t260                        1.21262e-05
x1.a_n1962_4406.t28                1.22441e-05
x1.ibias.t63                          0.646777
x1.vout.t15                        1.32434e-05
x1.vss.t118                        1.21106e-05
x1.vss.t117                        1.21106e-05
x1.vdd.t4                                  1.9
x1.a_n935_8875.t38                     1.60863
x1.a_n735_8972.t0                       1.6094
x1.a_n735_8972.t16                      1.6094
x1.vp.t7                                     0
x1.a_3329_8823.t74                 1.24145e-05
x1.a_3329_8823.t75                 1.24143e-05
x1.vp.t8                                     0
x1.a_n735_8972.t15                      1.6094
x1.a_n1962_4406.t96                1.22437e-05
x1.en.t53                                  1.9
x1.vss.t259                         1.2128e-05
x1.vdd.t63                                 1.9
x1.vdd.t61                                 1.9
x1.vdd.t62                                 1.9
x1.vss.t116                        1.21106e-05
x1.vss.t115                        1.21106e-05
x1.a_n1962_4406.t70                1.22453e-05
x1.a_n1962_4406.t27                1.22442e-05
x1.ibias.t64                          0.646777
x1.vout.t18                        1.32431e-05
x1.vss.t258                        1.21262e-05
x1.en.t54                                  1.9
x1.a_n1962_4406.t95                1.22436e-05
x1.vout.t10                        1.32433e-05
x1.ibias.t65                          0.646777
x1.a_n1962_4406.t26                1.22442e-05
x1.a_n735_8972.t14                      1.6094
x1.vp.t9                                     0
x1.a_3329_8823.t78                  1.2414e-05
x1.a_3329_8823.t59                 1.24145e-05
x1.vp.t10                                    0
x1.a_n735_8972.t13                      1.6094
x1.a_n735_8972.t12                      1.6094
x1.vp.t11                                    0
x1.a_3329_8823.t69                  1.2414e-05
x1.a_n1962_4406.t69                1.22429e-05
x1.vss.t113                        1.21106e-05
x1.vss.t114                        1.21106e-05
x1.vss.t257                        1.21229e-05
x1.en.t55                                  1.9
x1.a_n1962_4406.t94                1.22435e-05
x1.a_n1962_4406.t68                1.22453e-05
x1.vss.t111                        1.21106e-05
x1.vss.t112                        1.21106e-05
x1.vout.t51                        1.32431e-05
x1.ibias.t66                          0.646777
x1.a_n1962_4406.t25                1.22443e-05
x1.vout.t30                        1.32441e-05
x1.ibias.t67                          0.646777
x1.a_n1962_4406.t24                1.22467e-05
x1.vout.t24                        1.32441e-05
x1.ibias.t68                          0.646777
x1.a_n1962_4406.t23                1.22455e-05
x1.vss.t256                        0.000104325
x1.en.t56                                  1.9
x1.a_8862_4192.t14                  0.00136903
x1.a_8862_4192.t13                  0.00136895
x1.en.t57                                  1.9
x1.vss.t255                        7.65558e-05
x1.vdd.t21                                 1.9
x1.a_n935_8875.t22                     1.60863
x1.a_n935_8875.t23                     1.60863
x1.a_3329_8823.t50                 1.24139e-05
x1.vss.t109                        1.22038e-05
x1.vss.t110                        1.22038e-05
x1.vout.t56                         1.3243e-05
x1.ibias.t69                          0.646777
x1.a_n1962_4406.t22                1.22466e-05
x1.a_n1962_4406.t21                1.22455e-05
x1.ibias.t70                          0.646777
x1.vout.t20                        1.32434e-05
x1.a_3329_8823.t16                 1.24111e-05
x1.ibias.t71                          0.646777
x1.a_3868_4185.t17                 1.21355e-05
x1.vss.t108                        1.20872e-05
x1.vss.t107                        1.20872e-05
x1.a_3868_4185.t46                 1.21352e-05
x1.vout.t79                        1.32921e-05
x1.a_n735_8972.t42                      1.6094
x1.vdd.t38                                 1.9
x1.vout.t34                        1.32431e-05
x1.ibias.t72                          0.646777
x1.a_n1962_4406.t20                1.22442e-05
x1.a_n1962_4406.t19                1.22455e-05
x1.ibias.t73                          0.646777
x1.vout.t11                        1.32437e-05
x1.vss.t106                        1.20872e-05
x1.vss.t105                        1.20872e-05
x1.a_3868_4185.t45                 1.21352e-05
x1.vss.t104                        1.22038e-05
x1.vss.t101                        1.22038e-05
x1.vss.t103                        1.22041e-05
x1.vss.t102                        1.29979e-05
x1.a_n1962_4406.t18                1.22442e-05
x1.ibias.t74                          0.646777
x1.vout.t31                        1.32433e-05
x1.vss.t100                        7.06562e-05
x1.vss.t99                         6.33183e-05
x1.vss.t254                        7.59771e-05
x1.en.t58                                  1.9
x1.a_8862_4192.t12                  0.00136754
x1.vout.t8                         1.32434e-05
x1.ibias.t75                          0.646777
x1.a_n1962_4406.t17                1.22441e-05
x1.a_n1962_4406.t16                1.22442e-05
x1.ibias.t76                          0.646777
x1.vout.t32                        1.32436e-05
x1.a_n1962_4406.t15                1.22442e-05
x1.ibias.t77                          0.646777
x1.vout.t4                         1.32439e-05
x1.a_3868_4185.t16                 1.21355e-05
x1.ibias.t78                          0.646777
x1.a_3329_8823.t21                 1.24111e-05
x1.vss.t98                         6.22961e-05
x1.vss.t97                         6.22957e-05
x1.ibias.t9                           0.646679
x1.a_n1962_4406.t93                1.22436e-05
x1.en.t59                                  1.9
x1.vss.t253                        1.21193e-05
x1.vout.t19                        1.32437e-05
x1.ibias.t79                          0.646777
x1.a_n1962_4406.t14                1.22441e-05
x1.a_n1962_4406.t92                1.22436e-05
x1.en.t60                                  1.9
x1.vss.t252                        1.21156e-05
x1.a_3868_4185.t15                 1.21348e-05
x1.ibias.t80                          0.646777
x1.a_3329_8823.t36                  1.2411e-05
x1.vss.t251                        9.30055e-05
x1.en.t61                                  1.9
x1.a_8862_4192.t11                  0.00136883
x1.vdd.t60                                 1.9
x1.vdd.t58                                 1.9
x1.vdd.t59                                 1.9
x1.a_n735_8972.t11                      1.6094
x1.vp.t12                                    0
x1.a_3329_8823.t40                 1.24143e-05
x1.vss.t250                        1.21193e-05
x1.en.t62                                  1.9
x1.a_n1962_4406.t91                1.22436e-05
x1.vss.t96                         1.21106e-05
x1.vss.t95                         1.21106e-05
x1.a_8862_4192.t10                  0.00136762
x1.en.t63                                  1.9
x1.vss.t249                        0.000102951
x1.a_3868_4185.t14                 1.21348e-05
x1.ibias.t81                          0.646777
x1.a_3329_8823.t32                  1.2411e-05
x1.vss.t247                        1.21156e-05
x1.en.t64                                  1.9
x1.a_n1962_4406.t90                1.22436e-05
x1.a_3329_8823.t23                 1.24111e-05
x1.ibias.t82                          0.646777
x1.a_3868_4185.t13                 1.21355e-05
x1.a_8862_4192.t9                   0.00136877
x1.en.t65                                  1.9
x1.vss.t246                        7.36705e-05
x1.vss.t245                        1.20934e-05
x1.en.t66                                  1.9
x1.a_3868_4185.t66                 1.21343e-05
x1.a_n735_8972.t1                       1.6094
x1.a_n935_8875.t39                     1.60863
x1.vdd.t9                                  1.9
x1.vdd.t35                                 1.9
x1.a_n735_8972.t43                      1.6094
x1.vout.t76                        1.32922e-05
x1.a_n1962_4406.t13                1.22442e-05
x1.ibias.t83                          0.646777
x1.vout.t43                        1.32432e-05
x1.a_3329_8823.t45                 1.24143e-05
x1.vn.t11                          1.32772e-05
x1.a_n935_8875.t4                      1.60863
x1.vout.t88                        1.32915e-05
x1.a_n735_8972.t44                      1.6094
x1.vdd.t108                                1.9
x1.vss.t244                        1.21211e-05
x1.en.t67                                  1.9
x1.a_n1962_4406.t89                1.22435e-05
x1.a_3868_4185.t12                 1.21355e-05
x1.ibias.t84                          0.646777
x1.a_3329_8823.t10                 1.24111e-05
x1.vss.t94                         1.20872e-05
x1.vss.t93                         1.20872e-05
x1.a_3868_4185.t44                 1.21352e-05
x1.a_3868_4185.t43                 1.21344e-05
x1.vss.t91                         1.20872e-05
x1.vss.t92                         1.20872e-05
x1.a_3329_8823.t7                  1.24109e-05
x1.ibias.t85                          0.646777
x1.a_3868_4185.t11                 1.21348e-05
x1.vdd.t10                                 1.9
x1.a_n935_8875.t40                     1.60863
x1.a_n735_8972.t2                       1.6094
x1.vss.t90                         1.22042e-05
x1.vss.t88                         1.22039e-05
x1.a_n935_8875.t17                     1.60863
x1.a_n935_8875.t3                      1.60863
x1.vn.t12                          1.32772e-05
x1.a_3329_8823.t57                  1.2414e-05
x1.vdd.t57                                 1.9
x1.vdd.t55                                 1.9
x1.vdd.t56                                 1.9
x1.vss.t243                        1.21175e-05
x1.en.t68                                  1.9
x1.a_n1962_4406.t88                1.22435e-05
x1.a_3868_4185.t10                 1.21352e-05
x1.ibias.t86                          0.646777
x1.a_3329_8823.t3                  1.24109e-05
x1.vss.t87                         6.78275e-05
x1.vss.t86                         6.04772e-05
x1.vss.t242                        7.35308e-05
x1.en.t69                                  1.9
x1.a_8862_4192.t8                   0.00136784
x1.a_3329_8823.t29                 1.24109e-05
x1.ibias.t87                          0.646777
x1.a_3868_4185.t9                  1.21348e-05
x1.vout.t74                        1.32922e-05
x1.a_n735_8972.t45                      1.6094
x1.vdd.t32                                 1.9
x1.a_3868_4185.t65                 1.21346e-05
x1.en.t70                                  1.9
x1.vss.t241                        1.20935e-05
x1.vdd.t102                                1.9
x1.a_n735_8972.t46                      1.6094
x1.vout.t84                        1.32911e-05
x1.a_8862_4192.t7                   0.00136789
x1.en.t71                                  1.9
x1.vss.t240                        9.25227e-05
x1.vss.t239                        1.20935e-05
x1.en.t72                                  1.9
x1.a_3868_4185.t64                 1.21346e-05
x1.vdd.t12                                 1.9
x1.a_n935_8875.t20                     1.60863
x1.a_n935_8875.t21                     1.60863
x1.a_n935_8875.t2                      1.60863
x1.vn.t13                          1.32772e-05
x1.a_3329_8823.t68                 1.24145e-05
x1.vdd.t54                                 1.9
x1.vdd.t53                                 1.9
x1.a_n935_8875.t16                     1.60863
x1.vss.t83                         1.22039e-05
x1.vss.t85                         1.22043e-05
x1.vss.t82                         1.21106e-05
x1.vss.t81                         1.21106e-05
x1.vout.t85                        1.32913e-05
x1.a_n735_8972.t47                      1.6094
x1.vdd.t104                                1.9
x1.vss.t80                         1.21106e-05
x1.vss.t79                         1.21106e-05
x1.a_n1962_4406.t67                 1.2243e-05
x1.a_3868_4185.t8                  1.21348e-05
x1.ibias.t88                          0.646777
x1.a_3329_8823.t26                 1.24109e-05
x1.vss.t78                         1.21106e-05
x1.vss.t76                         1.21106e-05
x1.vdd.t107                                1.9
x1.a_n735_8972.t48                      1.6094
x1.vout.t87                         1.3292e-05
x1.a_n1962_4406.t66                1.22453e-05
x1.vss.t74                         1.21106e-05
x1.vss.t75                         1.21106e-05
x1.vss.t73                         1.22039e-05
x1.vss.t71                         1.22039e-05
x1.vss.t72                         1.22042e-05
x1.vdd.t24                                 1.9
x1.a_n735_8972.t49                      1.6094
x1.vout.t70                        1.32922e-05
x1.vss.t238                         1.2128e-05
x1.en.t73                                  1.9
x1.a_n1962_4406.t87                1.22437e-05
x1.vss.t70                         1.21106e-05
x1.vss.t68                         1.21106e-05
x1.vss.t69                         1.21106e-05
x1.vout.t72                        1.32907e-05
x1.a_n735_8972.t50                      1.6094
x1.vdd.t26                                 1.9
x1.vout.t41                        1.32431e-05
x1.ibias.t89                          0.646777
x1.a_n1962_4406.t12                1.22455e-05
x1.a_n1962_4406.t65                1.22453e-05
x1.vss.t66                         1.21106e-05
x1.vss.t67                         1.21106e-05
x1.a_n1962_4406.t86                1.22436e-05
x1.en.t74                                  1.9
x1.vss.t237                        1.21246e-05
x1.vss.t65                         1.22039e-05
x1.vss.t63                         1.22039e-05
x1.a_3329_8823.t49                  1.2414e-05
x1.a_3329_8823.t48                 1.24139e-05
x1.vss.t60                         1.22038e-05
x1.vss.t62                         1.22038e-05
x1.a_n1962_4406.t11                1.22442e-05
x1.ibias.t90                          0.646777
x1.vout.t47                        1.32432e-05
x1.vss.t59                         1.21106e-05
x1.vss.t58                         1.21106e-05
x1.a_n1962_4406.t64                1.22453e-05
x1.vdd.t1                                  1.9
x1.a_n935_8875.t18                     1.60863
x1.a_n935_8875.t19                     1.60863
x1.a_n735_8972.t10                      1.6094
x1.vp.t13                                    0
x1.a_3329_8823.t41                 1.24144e-05
x1.a_n935_8875.t1                      1.60863
x1.vn.t14                          1.32772e-05
x1.a_3329_8823.t72                 1.24142e-05
x1.vss.t312                        1.36683e-05
x1.vdd.t52                                 1.9
x1.vdd.t50                                 1.9
x1.vdd.t51                                 1.9
x1.vout.t44                        1.32432e-05
x1.ibias.t91                          0.646777
x1.a_n1962_4406.t10                1.22442e-05
x1.vss.t57                         1.21106e-05
x1.vss.t55                         1.21106e-05
x1.a_n1962_4406.t63                1.22453e-05
x1.a_3329_8823.t30                  1.2411e-05
x1.ibias.t92                          0.646777
x1.a_3868_4185.t7                  1.21353e-05
x1.vdd.t49                                 1.9
x1.vdd.t46                                 1.9
x1.vdd.t48                                 1.9
x1.vout.t82                        1.32922e-05
x1.a_n735_8972.t51                      1.6094
x1.vdd.t100                                1.9
x1.vout.t36                        1.32436e-05
x1.ibias.t93                          0.646777
x1.a_n1962_4406.t9                 1.22455e-05
x1.vout.t37                         1.3244e-05
x1.ibias.t94                          0.646777
x1.a_n1962_4406.t8                 1.22455e-05
x1.a_3329_8823.t22                  1.2411e-05
x1.ibias.t95                          0.646777
x1.a_3868_4185.t6                  1.21352e-05
x1.a_3329_8823.t60                 1.24142e-05
x1.vp.t14                                    0
x1.a_n735_8972.t9                       1.6094
x1.vss.t213                        1.34983e-05
x1.a_n1962_4406.t85                1.22426e-05
x1.en.t75                                  1.9
x1.vss.t236                        1.21228e-05
x1.a_9909_7861.t1                       1.6094
x1.vout.t78                        1.32614e-05
x1.a_3868_4185.t42                 1.21352e-05
x1.vss.t53                         1.20872e-05
x1.vss.t54                         1.20872e-05
x1.vout.t80                        1.32924e-05
x1.a_n735_8972.t52                      1.6094
x1.vdd.t98                                 1.9
x1.a_n1962_4406.t7                 1.22441e-05
x1.ibias.t96                          0.646777
x1.vout.t12                        1.32436e-05
x1.a_n1962_4406.t6                  1.2244e-05
x1.ibias.t97                          0.646777
x1.vout.t5                          1.3244e-05
x1.a_3868_4185.t63                 1.21343e-05
x1.en.t76                                  1.9
x1.vss.t235                        1.20935e-05
x1.vss.t234                        1.20935e-05
x1.en.t77                                  1.9
x1.a_3868_4185.t62                 1.21346e-05
x1.vss.t233                        1.20935e-05
x1.en.t78                                  1.9
x1.a_3868_4185.t61                 1.21346e-05
x1.a_3868_4185.t41                 1.21352e-05
x1.vss.t50                         1.20872e-05
x1.vss.t52                         1.20872e-05
x1.a_n735_8972.t6                       1.6094
x1.a_n935_8875.t41                     1.60863
x1.vdd.t34                                 1.9
x1.a_n735_8972.t3                       1.6094
x1.vss.t47                         1.22038e-05
x1.vss.t49                         1.22042e-05
x1.vss.t48                         1.32965e-05
x1.a_n1962_4406.t84                1.22437e-05
x1.en.t79                                  1.9
x1.vss.t223                        1.21279e-05
x1.vss.t232                        1.21228e-05
x1.en.t80                                  1.9
x1.a_n1962_4406.t83                1.22436e-05
x1.vout.t1                         1.32436e-05
x1.ibias.t98                          0.646777
x1.a_n1962_4406.t5                 1.22442e-05
x1.vss.t46                         1.21106e-05
x1.vss.t44                         1.21106e-05
x1.vss.t43                         7.08544e-05
x1.vss.t42                         6.35055e-05
x1.a_3868_4185.t60                 1.21343e-05
x1.en.t81                                  1.9
x1.vss.t231                        1.20935e-05
x1.a_3329_8823.t76                 1.24144e-05
x1.vp.t15                                    0
x1.a_n735_8972.t8                       1.6094
x1.a_n1962_4406.t62                1.22429e-05
x1.vss.t40                         1.21106e-05
x1.vss.t41                         1.21106e-05
x1.vss.t228                        1.21193e-05
x1.en.t82                                  1.9
x1.a_n1962_4406.t82                1.22435e-05
x1.vout.t7                         1.32439e-05
x1.ibias.t99                          0.646777
x1.a_n1962_4406.t4                 1.22442e-05
x1.a_n1962_4406.t61                1.22428e-05
x1.vss.t37                         1.21106e-05
x1.vss.t39                         1.21106e-05
x1.vss.t230                        1.21156e-05
x1.en.t83                                  1.9
x1.a_n1962_4406.t81                1.22434e-05
x1.vss.t229                        1.20935e-05
x1.en.t84                                  1.9
x1.a_3868_4185.t59                 1.21346e-05
x1.vss.t227                        7.55006e-05
x1.en.t85                                  1.9
x1.a_8862_4192.t6                   0.00136893
x1.vss.t226                        1.20935e-05
x1.en.t86                                  1.9
x1.a_3868_4185.t58                 1.21346e-05
x1.vss.t36                         1.21106e-05
x1.vss.t35                         1.21106e-05
x1.a_3868_4185.t5                  1.21348e-05
x1.ibias.t100                         0.646777
x1.a_3329_8823.t15                  1.2411e-05
x1.a_3868_4185.t4                  1.21348e-05
x1.ibias.t101                         0.646777
x1.a_3329_8823.t37                  1.2411e-05
x1.a_n1962_4406.t3                 1.22466e-05
x1.ibias.t102                         0.646777
x1.vout.t48                        1.32431e-05
x1.a_8862_4192.t5                   0.00136901
x1.en.t87                                  1.9
x1.vss.t225                        0.000104325
x1.vout.t60                        1.32918e-05
x1.a_n735_8972.t53                      1.6094
x1.vdd.t3                                  1.9
x1.vdd.t6                                  1.9
x1.a_n735_8972.t54                      1.6094
x1.vout.t61                        1.32915e-05
x1.a_n1962_4406.t80                1.22436e-05
x1.en.t88                                  1.9
x1.vss.t224                        1.21263e-05
x1.a_3329_8823.t33                  1.2411e-05
x1.ibias.t103                         0.646777
x1.a_3868_4185.t3                  1.21348e-05
x1.ibias.t8                           0.646674
x1.vss.t33                         5.67392e-05
x1.vss.t34                         5.67395e-05
x1.vss.t32                         5.86466e-05
x1.vss.t29                          5.8698e-05
x1.vss.t31                         7.34108e-05
x1.vout.t33                        1.32433e-05
x1.ibias.t104                         0.646777
x1.a_n1962_4406.t2                 1.22442e-05
x1.a_3329_8823.t20                  1.2411e-05
x1.ibias.t105                         0.646777
x1.a_3868_4185.t2                  1.21348e-05
x1.vss.t28                         1.20872e-05
x1.vss.t26                         1.20872e-05
x1.a_3868_4185.t40                 1.21352e-05
x1.vdd.t45                                 1.9
x1.vdd.t43                                 1.9
x1.vdd.t42                                 1.9
x1.vdd.t39                                 1.9
x1.vdd.t41                                 1.9
x1.a_3868_4185.t1                  1.21355e-05
x1.ibias.t106                         0.646777
x1.a_3329_8823.t31                 1.24111e-05
x1.a_3868_4185.t57                 1.21346e-05
x1.en.t89                                  1.9
x1.vss.t222                        1.20935e-05
x1.a_3329_8823.t19                 1.24109e-05
x1.ibias.t107                         0.646777
x1.a_3868_4185.t0                  1.21355e-05
x1.a_3868_4185.t56                 1.21346e-05
x1.en.t90                                  1.9
x1.vss.t221                        1.20935e-05
x1.a_n1962_4406.t1                 1.22441e-05
x1.ibias.t108                         0.646777
x1.vout.t27                        1.32436e-05
x1.vss.t25                         1.21106e-05
x1.vss.t24                         1.21106e-05
x1.a_n1962_4406.t60                1.22453e-05
x1.vss.t23                         6.84061e-05
x1.vss.t21                         6.10564e-05
x1.vss.t220                        7.40098e-05
x1.en.t91                                  1.9
x1.a_8862_4192.t4                   0.00136878
x1.a_n935_8875.t0                      1.60863
x1.vn.t15                          1.32772e-05
x1.a_3329_8823.t44                 1.24144e-05
x1.a_n1962_4406.t0                 1.22455e-05
x1.ibias.t109                         0.646777
x1.vout.t59                        1.32439e-05
x1.en.n0                                   1.9
x1.en.n3                                   1.9
x1.en.n7                                   1.9
x1.en.n11                                  1.9
x1.en.n15                                  1.9
x1.en.n38                                  1.9
x1.en.n41                                  1.9
x1.en.n44                                  1.9
x1.en.n50                                  1.9
x1.en.n56                                  1.9
x1.en.n62                                  1.9
x1.en.n68                                  1.9
x1.en.n74                                  1.9
x1.en.n80                                  1.9
x1.en.n19                                  1.9
x1.en.n22                                  1.9
x1.en.n26                                  1.9
x1.en.n30                                  1.9
x1.en.n34                                  1.9
x1.en.n87                                  1.9
x1.en.n89                                  1.9
x1.en.n88                                  1.9
x1.en.n2                                   1.9
x1.en.n1                                   1.9
x1.en.n5                                   1.9
x1.en.n4                                   1.9
x1.en.n9                                   1.9
x1.en.n8                                   1.9
x1.en.n13                                  1.9
x1.en.n12                                  1.9
x1.en.n17                                  1.9
x1.en.n16                                  1.9
x1.en.n39                                  1.9
x1.en.n40                                  1.9
x1.en.n42                                  1.9
x1.en.n43                                  1.9
x1.en.n45                                  1.9
x1.en.n46                                  1.9
x1.en.n47                                  1.9
x1.en.n48                                  1.9
x1.en.n51                                  1.9
x1.en.n52                                  1.9
x1.en.n53                                  1.9
x1.en.n54                                  1.9
x1.en.n57                                  1.9
x1.en.n58                                  1.9
x1.en.n59                                  1.9
x1.en.n60                                  1.9
x1.en.n63                                  1.9
x1.en.n64                                  1.9
x1.en.n65                                  1.9
x1.en.n66                                  1.9
x1.en.n69                                  1.9
x1.en.n70                                  1.9
x1.en.n71                                  1.9
x1.en.n72                                  1.9
x1.en.n75                                  1.9
x1.en.n76                                  1.9
x1.en.n77                                  1.9
x1.en.n78                                  1.9
x1.en.n81                                  1.9
x1.en.n82                                  1.9
x1.en.n20                                  1.9
x1.en.n21                                  1.9
x1.en.n23                                  1.9
x1.en.n24                                  1.9
x1.en.n27                                  1.9
x1.en.n28                                  1.9
x1.en.n31                                  1.9
x1.en.n32                                  1.9
x1.en.n35                                  1.9
x1.en.n36                                  1.9
x1.en.n84                                  1.9
x1.en.n83                                  1.9
x1.en.n90                                  1.9
x1.en.n49                                  1.9
x1.en.n25                                  1.9
x1.en.n29                                  1.9
x1.en.n37                                  1.9
x1.en.n6                                   1.9
x1.en.n61                                  1.9
x1.en.n73                                  1.9
x1.en.n10                                  1.9
x1.en.n14                                  1.9
x1.en.n18                                  1.9
x1.en.n33                                  1.9
x1.en.n55                                  1.9
x1.en.n67                                  1.9
x1.en.n79                                  1.9
x1.en.n86                                  1.9
x1.en.n85                                  1.9
x1.vss.n1977                       1.42929e-05
x1.vss.n1888                       5.86307e-05
x1.vss.n2092                        1.2907e-05
x1.vss.n1496                       1.22236e-05
x1.vss.n2383                       5.84257e-05
x1.vss.n123                        5.88127e-05
x1.vss.n1376                       1.22223e-05
x1.vss.n719                         1.2223e-05
x1.vss.n1211                       1.21982e-05
x1.vss.n825                        1.21905e-05
x1.vss.n2192                       1.43045e-05
x1.vss.n243                        1.43852e-05
x1.vss.n2109                       1.27495e-05
x1.vss.n668                        1.25833e-05
x1.vss.n2129                       1.35076e-05
x1.vss.n317                        1.34278e-05
x1.vss.n661                        1.34249e-05
x1.vss.n314                        1.35031e-05
x1.vss.n2337                        4.9853e-05
x1.vss.n165                          4.895e-05
x1.vss.n1494                        1.2223e-05
x1.vss.n722                        1.22224e-05
x1.vss.n1905                       1.42118e-05
x1.vss.n1529                       1.41215e-05
x1.vss.n187                        4.90001e-05
x1.vss.n167                        4.99037e-05
x1.vss.n2224                       1.59929e-05
x1.vss.n213                        1.63418e-05
x1.vss.n590                        1.48665e-05
x1.vss.n211                        1.49647e-05
x1.vss.n1207                       1.22295e-05
x1.vss.n826                        1.22355e-05
x1.vss.n2090                       1.30026e-05
x1.vss.n1499                       1.31058e-05
x1.vss.n1886                       5.87029e-05
x1.vss.n1534                       5.87437e-05
x1.vss.n1879                       5.87029e-05
x1.vss.n1878                       5.87437e-05
x1.vss.n1639                       5.78613e-05
x1.vss.n127                        5.74361e-05
x1.vss.n524                        1.65958e-05
x1.vss.n523                         1.6586e-05
x1.vss.n568                        1.61689e-05
x1.vss.n567                        1.62855e-05
x1.vss.n1663                       5.83396e-05
x1.vss.n1662                        5.8311e-05
x1.vss.n1707                       5.86555e-05
x1.vss.n1706                       5.85961e-05
x1.vss.n2335                       4.81024e-05
x1.vss.n2226                       1.66587e-05
x1.vss.n164                         4.9622e-05
x1.vss.n2333                       4.87954e-05
x1.vss.n2332                       4.94173e-05
x1.vss.n2331                       4.92398e-05
x1.vss.n2227                       4.86885e-05
x1.vss.n2330                       4.90864e-05
x1.vss.n2329                       4.86051e-05
x1.vss.n2328                       4.89541e-05
x1.vss.n2327                       4.85361e-05
x1.vss.n2326                       4.84775e-05
x1.vss.n2325                       4.88401e-05
x1.vss.n2324                       4.87419e-05
x1.vss.n2323                       4.84275e-05
x1.vss.n2322                       4.83845e-05
x1.vss.n2321                       4.86576e-05
x1.vss.n2320                       4.85851e-05
x1.vss.n2319                       4.83477e-05
x1.vss.n2318                       4.83162e-05
x1.vss.n2317                       4.85231e-05
x1.vss.n2316                       4.84701e-05
x1.vss.n2315                       4.82892e-05
x1.vss.n2314                       4.82663e-05
x1.vss.n2313                        4.8425e-05
x1.vss.n2312                       4.83868e-05
x1.vss.n2311                       4.82469e-05
x1.vss.n2310                       4.82307e-05
x1.vss.n2309                       4.83548e-05
x1.vss.n2308                       4.83282e-05
x1.vss.n2307                       4.82172e-05
x1.vss.n2306                       4.82061e-05
x1.vss.n2305                       4.83065e-05
x1.vss.n2304                       4.82892e-05
x1.vss.n2303                       4.81973e-05
x1.vss.n2302                       4.81906e-05
x1.vss.n2301                       4.82759e-05
x1.vss.n2300                       4.82663e-05
x1.vss.n2299                       4.81857e-05
x1.vss.n2298                       4.81826e-05
x1.vss.n2297                       4.82602e-05
x1.vss.n2296                       4.82576e-05
x1.vss.n2295                       4.81813e-05
x1.vss.n2294                       4.81816e-05
x1.vss.n2293                       4.82582e-05
x1.vss.n2292                       4.82623e-05
x1.vss.n2291                       4.81837e-05
x1.vss.n2290                       4.81875e-05
x1.vss.n2289                       4.82697e-05
x1.vss.n2288                       4.82808e-05
x1.vss.n2287                       4.81931e-05
x1.vss.n2286                       4.82007e-05
x1.vss.n2285                       4.82957e-05
x1.vss.n2284                       4.83148e-05
x1.vss.n2283                       4.82104e-05
x1.vss.n2282                       4.82224e-05
x1.vss.n2281                       4.83385e-05
x1.vss.n2280                       4.83672e-05
x1.vss.n2279                        4.8237e-05
x1.vss.n2278                       4.82545e-05
x1.vss.n2277                       4.84016e-05
x1.vss.n2276                       4.84425e-05
x1.vss.n2275                       4.82752e-05
x1.vss.n2274                       4.82997e-05
x1.vss.n2273                       4.84907e-05
x1.vss.n2272                       4.85472e-05
x1.vss.n2271                       4.83284e-05
x1.vss.n2270                        4.8362e-05
x1.vss.n2269                       4.86133e-05
x1.vss.n2268                       4.86904e-05
x1.vss.n2267                       4.84012e-05
x1.vss.n2266                       4.84469e-05
x1.vss.n2265                       4.87802e-05
x1.vss.n2264                       4.88846e-05
x1.vss.n2263                       4.85002e-05
x1.vss.n2262                       4.85623e-05
x1.vss.n2261                       4.90057e-05
x1.vss.n2260                       4.91463e-05
x1.vss.n2259                       4.86356e-05
x1.vss.n2258                       4.87241e-05
x1.vss.n2257                       4.93092e-05
x1.vss.n2256                       4.94978e-05
x1.vss.n2255                       4.88371e-05
x1.vss.n2254                       4.97152e-05
x1.vss.n2253                       5.05017e-05
x1.vss.n2336                       4.91838e-05
x1.vss.n2252                       5.07766e-05
x1.vss.n2251                       5.02716e-05
x1.vss.n166                        4.97357e-05
x1.vss.n2250                       5.10736e-05
x1.vss.n162                        5.06602e-05
x1.vss.n2342                       5.02432e-05
x1.vss.n2249                       5.13887e-05
x1.vss.n161                        5.10512e-05
x1.vss.n2343                       5.07171e-05
x1.vss.n2248                       5.17186e-05
x1.vss.n160                        5.14398e-05
x1.vss.n2344                       5.11654e-05
x1.vss.n2247                       5.20607e-05
x1.vss.n2246                       5.18255e-05
x1.vss.n159                        5.15939e-05
x1.vss.n2245                        5.2413e-05
x1.vss.n155                        5.22088e-05
x1.vss.n2350                       5.20068e-05
x1.vss.n2244                       5.27743e-05
x1.vss.n154                        5.25904e-05
x1.vss.n2351                       5.24077e-05
x1.vss.n2243                       5.31437e-05
x1.vss.n153                        5.29714e-05
x1.vss.n2352                       5.27991e-05
x1.vss.n2242                       5.35206e-05
x1.vss.n2241                       5.33523e-05
x1.vss.n152                        5.31831e-05
x1.vss.n2240                       5.39048e-05
x1.vss.n148                        5.37338e-05
x1.vss.n2358                        5.3561e-05
x1.vss.n2239                       5.42966e-05
x1.vss.n147                        5.41166e-05
x1.vss.n2359                       5.39339e-05
x1.vss.n2238                       5.46962e-05
x1.vss.n146                        5.45012e-05
x1.vss.n2360                       5.43027e-05
x1.vss.n2237                       5.51043e-05
x1.vss.n2236                       5.48883e-05
x1.vss.n145                        5.46678e-05
x1.vss.n2235                        5.5522e-05
x1.vss.n141                        5.52784e-05
x1.vss.n2366                       5.50294e-05
x1.vss.n2234                       5.59502e-05
x1.vss.n140                        5.56721e-05
x1.vss.n2367                       5.53877e-05
x1.vss.n2233                       5.63907e-05
x1.vss.n139                          5.607e-05
x1.vss.n2368                       5.57423e-05
x1.vss.n2232                       5.68451e-05
x1.vss.n2231                       5.64728e-05
x1.vss.n135                        5.60931e-05
x1.vss.n2230                       5.73159e-05
x1.vss.n134                        5.68804e-05
x1.vss.n2374                       5.64389e-05
x1.vss.n2229                       5.78057e-05
x1.vss.n133                        5.72921e-05
x1.vss.n2375                       5.67793e-05
x1.vss.n2228                        5.8318e-05
x1.vss.n132                        5.77032e-05
x1.vss.n2376                       5.71128e-05
x1.vss.n124                         5.8098e-05
x1.vss.n122                        5.88572e-05
x1.vss.n126                        5.74384e-05
x1.vss.n2384                       5.94296e-05
x1.vss.n2382                       5.77552e-05
x1.vss.n121                        5.93734e-05
x1.vss.n1715                       5.88067e-05
x1.vss.n1714                        5.9244e-05
x1.vss.n1713                       5.91338e-05
x1.vss.n1638                       5.87703e-05
x1.vss.n1712                       5.90394e-05
x1.vss.n1711                       5.87288e-05
x1.vss.n1710                       5.86898e-05
x1.vss.n1709                       5.89587e-05
x1.vss.n1708                       5.88897e-05
x1.vss.n1705                       5.87722e-05
x1.vss.n1704                       5.87212e-05
x1.vss.n1703                       5.85702e-05
x1.vss.n1702                       5.85477e-05
x1.vss.n1701                       5.86768e-05
x1.vss.n1700                        5.8638e-05
x1.vss.n1699                        5.8528e-05
x1.vss.n1698                       5.85107e-05
x1.vss.n1697                       5.86041e-05
x1.vss.n1696                       5.85742e-05
x1.vss.n1695                       5.84955e-05
x1.vss.n1694                       5.84821e-05
x1.vss.n1693                       5.85478e-05
x1.vss.n1692                       5.85242e-05
x1.vss.n1691                       5.84701e-05
x1.vss.n1690                       5.84594e-05
x1.vss.n1689                       5.85031e-05
x1.vss.n1688                       5.84838e-05
x1.vss.n1687                       5.84496e-05
x1.vss.n1686                       5.84406e-05
x1.vss.n1685                        5.8466e-05
x1.vss.n1684                       5.84493e-05
x1.vss.n1683                       5.84321e-05
x1.vss.n1682                        5.8424e-05
x1.vss.n1681                       5.84334e-05
x1.vss.n1680                       5.84179e-05
x1.vss.n1679                       5.84161e-05
x1.vss.n1678                       5.84083e-05
x1.vss.n1677                       5.84025e-05
x1.vss.n1676                       5.83869e-05
x1.vss.n1675                       5.84003e-05
x1.vss.n1674                       5.83921e-05
x1.vss.n1673                       5.83706e-05
x1.vss.n1672                       5.83534e-05
x1.vss.n1671                       5.83833e-05
x1.vss.n1670                       5.83739e-05
x1.vss.n1669                       5.83349e-05
x1.vss.n1668                       5.83147e-05
x1.vss.n1667                       5.83637e-05
x1.vss.n1666                       5.83523e-05
x1.vss.n1665                       5.82923e-05
x1.vss.n1664                       5.82673e-05
x1.vss.n1661                       5.82111e-05
x1.vss.n1660                       5.81785e-05
x1.vss.n1659                       5.82945e-05
x1.vss.n1658                       5.82754e-05
x1.vss.n1657                       5.81409e-05
x1.vss.n1656                       5.80975e-05
x1.vss.n1655                       5.82533e-05
x1.vss.n1654                       5.82277e-05
x1.vss.n1653                       5.80472e-05
x1.vss.n1652                        5.7989e-05
x1.vss.n1651                       5.81981e-05
x1.vss.n1650                       5.81638e-05
x1.vss.n1649                       5.79216e-05
x1.vss.n1648                       5.78437e-05
x1.vss.n1647                        5.8124e-05
x1.vss.n1646                       5.80774e-05
x1.vss.n1645                       5.77535e-05
x1.vss.n1644                       5.76491e-05
x1.vss.n1643                        5.8022e-05
x1.vss.n1642                       5.79536e-05
x1.vss.n1641                       5.75284e-05
x1.vss.n1640                        5.7389e-05
x1.vss.n129                        5.69256e-05
x1.vss.n1718                       5.80455e-05
x1.vss.n2381                       5.72228e-05
x1.vss.n2380                       5.67433e-05
x1.vss.n2379                       5.65399e-05
x1.vss.n128                        5.69739e-05
x1.vss.n2378                       5.63176e-05
x1.vss.n2377                       5.67044e-05
x1.vss.n131                        5.64202e-05
x1.vss.n130                        5.60784e-05
x1.vss.n2373                       5.61244e-05
x1.vss.n2372                       5.58242e-05
x1.vss.n2371                       5.55569e-05
x1.vss.n136                        5.58188e-05
x1.vss.n2370                       5.52782e-05
x1.vss.n2369                        5.5505e-05
x1.vss.n138                         5.5184e-05
x1.vss.n137                        5.49895e-05
x1.vss.n2365                       5.48568e-05
x1.vss.n2364                       5.46922e-05
x1.vss.n2363                       5.43878e-05
x1.vss.n142                        5.45242e-05
x1.vss.n2362                       5.40774e-05
x1.vss.n2361                       5.41868e-05
x1.vss.n144                        5.38451e-05
x1.vss.n143                        5.37623e-05
x1.vss.n2357                       5.34994e-05
x1.vss.n2356                       5.34435e-05
x1.vss.n2355                       5.31222e-05
x1.vss.n149                        5.31499e-05
x1.vss.n2354                       5.27998e-05
x1.vss.n2353                       5.27966e-05
x1.vss.n151                        5.24396e-05
x1.vss.n150                        5.24775e-05
x1.vss.n2349                       5.20786e-05
x1.vss.n2348                       5.21568e-05
x1.vss.n2347                       5.18396e-05
x1.vss.n156                        5.17132e-05
x1.vss.n2346                       5.15279e-05
x1.vss.n2345                       5.13429e-05
x1.vss.n158                        5.09677e-05
x1.vss.n157                        5.12243e-05
x1.vss.n2341                       5.05885e-05
x1.vss.n2340                       5.09319e-05
x1.vss.n2339                       5.06546e-05
x1.vss.n163                        5.02104e-05
x1.vss.n2338                       5.03967e-05
x1.vss.n1785                         5.944e-05
x1.vss.n1617                       5.90501e-05
x1.vss.n1616                       5.87226e-05
x1.vss.n1784                       5.94447e-05
x1.vss.n1783                       5.90381e-05
x1.vss.n1782                       5.86769e-05
x1.vss.n1779                       5.90036e-05
x1.vss.n1778                         5.944e-05
x1.vss.n1780                       5.84681e-05
x1.vss.n1777                       5.94332e-05
x1.vss.n1720                       5.89681e-05
x1.vss.n1719                       5.82047e-05
x1.vss.n1776                       5.94281e-05
x1.vss.n1775                       5.89497e-05
x1.vss.n125                        5.79244e-05
x1.vss.n1536                       5.87821e-05
x1.vss.n1531                       5.86988e-05
x1.vss.n1877                       5.87618e-05
x1.vss.n1538                       5.87904e-05
x1.vss.n1876                       5.87337e-05
x1.vss.n1721                          5.88e-05
x1.vss.n1537                       5.87797e-05
x1.vss.n1539                       5.87613e-05
x1.vss.n1722                       5.88104e-05
x1.vss.n1543                       5.87963e-05
x1.vss.n1870                        5.8784e-05
x1.vss.n1723                       5.88215e-05
x1.vss.n1544                       5.88117e-05
x1.vss.n1869                       5.88034e-05
x1.vss.n1724                       5.88329e-05
x1.vss.n1545                       5.88263e-05
x1.vss.n1868                       5.88206e-05
x1.vss.n1726                       5.88447e-05
x1.vss.n1725                       5.88401e-05
x1.vss.n1546                       5.88362e-05
x1.vss.n1727                       5.88567e-05
x1.vss.n1550                       5.88536e-05
x1.vss.n1862                       5.88509e-05
x1.vss.n1728                       5.88688e-05
x1.vss.n1551                       5.88667e-05
x1.vss.n1861                       5.88649e-05
x1.vss.n1729                        5.8881e-05
x1.vss.n1552                       5.88796e-05
x1.vss.n1860                       5.88783e-05
x1.vss.n1731                       5.88933e-05
x1.vss.n1730                       5.88923e-05
x1.vss.n1553                       5.88915e-05
x1.vss.n1732                       5.89056e-05
x1.vss.n1557                       5.89049e-05
x1.vss.n1854                       5.89044e-05
x1.vss.n1733                       5.89179e-05
x1.vss.n1558                       5.89175e-05
x1.vss.n1853                       5.89171e-05
x1.vss.n1734                       5.89303e-05
x1.vss.n1559                         5.893e-05
x1.vss.n1852                       5.89298e-05
x1.vss.n1736                       5.89427e-05
x1.vss.n1735                       5.89425e-05
x1.vss.n1560                       5.89423e-05
x1.vss.n1737                       5.89551e-05
x1.vss.n1564                       5.89549e-05
x1.vss.n1846                       5.89549e-05
x1.vss.n1738                       5.89675e-05
x1.vss.n1565                       5.89674e-05
x1.vss.n1845                       5.89673e-05
x1.vss.n1739                       5.89798e-05
x1.vss.n1566                       5.89798e-05
x1.vss.n1844                       5.89798e-05
x1.vss.n1741                       5.89922e-05
x1.vss.n1740                       5.89922e-05
x1.vss.n1567                       5.89923e-05
x1.vss.n1742                       5.90046e-05
x1.vss.n1571                       5.90047e-05
x1.vss.n1838                       5.90047e-05
x1.vss.n1743                        5.9017e-05
x1.vss.n1572                       5.90171e-05
x1.vss.n1837                       5.90171e-05
x1.vss.n1744                       5.90294e-05
x1.vss.n1573                       5.90295e-05
x1.vss.n1836                       5.90295e-05
x1.vss.n1746                       5.90418e-05
x1.vss.n1745                       5.90419e-05
x1.vss.n1574                       5.90419e-05
x1.vss.n1747                       5.90542e-05
x1.vss.n1578                       5.90543e-05
x1.vss.n1830                       5.90543e-05
x1.vss.n1748                       5.90666e-05
x1.vss.n1579                       5.90666e-05
x1.vss.n1829                       5.90667e-05
x1.vss.n1749                       5.90789e-05
x1.vss.n1580                        5.9079e-05
x1.vss.n1828                       5.90791e-05
x1.vss.n1751                       5.90913e-05
x1.vss.n1750                       5.90914e-05
x1.vss.n1581                       5.90915e-05
x1.vss.n1752                       5.91037e-05
x1.vss.n1585                       5.91037e-05
x1.vss.n1822                       5.91038e-05
x1.vss.n1753                       5.91161e-05
x1.vss.n1586                        5.9116e-05
x1.vss.n1821                       5.91161e-05
x1.vss.n1754                       5.91284e-05
x1.vss.n1587                       5.91283e-05
x1.vss.n1820                       5.91283e-05
x1.vss.n1756                       5.91408e-05
x1.vss.n1755                       5.91406e-05
x1.vss.n1588                       5.91404e-05
x1.vss.n1757                       5.91532e-05
[...]
 Reference value :  7.29168e-06
 Reference value :  7.30168e-06
 Reference value :  7.32168e-06
 Reference value :  7.34168e-06
 Reference value :  7.36168e-06
 Reference value :  7.38168e-06
 Reference value :  7.40168e-06
 Reference value :  7.42168e-06
 Reference value :  7.44168e-06
 Reference value :  7.46168e-06
 Reference value :  7.48168e-06
 Reference value :  7.50168e-06
 Reference value :  7.52168e-06
 Reference value :  7.54168e-06
 Reference value :  7.56168e-06
 Reference value :  7.58168e-06
 Reference value :  7.60168e-06
 Reference value :  7.62168e-06
 Reference value :  7.64168e-06
 Reference value :  7.66168e-06
 Reference value :  7.68168e-06
 Reference value :  7.70168e-06
 Reference value :  7.72168e-06
 Reference value :  7.74168e-06
 Reference value :  7.76168e-06
 Reference value :  7.78168e-06
 Reference value :  7.80168e-06
 Reference value :  7.82168e-06
 Reference value :  7.84168e-06
 Reference value :  7.86168e-06
 Reference value :  7.88168e-06
 Reference value :  7.90168e-06
 Reference value :  7.92168e-06
 Reference value :  7.94168e-06
 Reference value :  7.96168e-06
 Reference value :  7.98168e-06
 Reference value :  8.00168e-06
 Reference value :  8.02168e-06
 Reference value :  8.04168e-06
 Reference value :  8.06168e-06
 Reference value :  8.08168e-06
 Reference value :  8.10168e-06
 Reference value :  8.12168e-06
 Reference value :  8.14168e-06
 Reference value :  8.16168e-06
 Reference value :  8.18168e-06
 Reference value :  8.20168e-06
 Reference value :  8.22168e-06
 Reference value :  8.24168e-06
 Reference value :  8.26168e-06
 Reference value :  8.28168e-06
 Reference value :  8.30168e-06
 Reference value :  8.32168e-06
 Reference value :  8.34168e-06
 Reference value :  8.36168e-06
 Reference value :  8.38168e-06
 Reference value :  8.40168e-06
 Reference value :  8.42168e-06
 Reference value :  8.44168e-06
 Reference value :  8.46168e-06
 Reference value :  8.48168e-06
 Reference value :  8.50168e-06
 Reference value :  8.52168e-06
 Reference value :  8.54168e-06
 Reference value :  8.56168e-06
 Reference value :  8.58168e-06
 Reference value :  8.60168e-06
 Reference value :  8.62168e-06
 Reference value :  8.64168e-06
 Reference value :  8.66168e-06
 Reference value :  8.68168e-06
 Reference value :  8.70168e-06
 Reference value :  8.72168e-06
 Reference value :  8.74168e-06
 Reference value :  8.76168e-06
 Reference value :  8.78168e-06
 Reference value :  8.80168e-06
 Reference value :  8.82168e-06
 Reference value :  8.84168e-06
 Reference value :  8.86168e-06
 Reference value :  8.88168e-06
 Reference value :  8.90168e-06
 Reference value :  8.92168e-06
 Reference value :  8.94168e-06
 Reference value :  8.96168e-06
 Reference value :  8.98168e-06
 Reference value :  9.00168e-06
 Reference value :  9.02168e-06
 Reference value :  9.04168e-06
 Reference value :  9.06168e-06
 Reference value :  9.08168e-06
 Reference value :  9.10168e-06
 Reference value :  9.12168e-06
 Reference value :  9.14168e-06
 Reference value :  9.16168e-06
 Reference value :  9.18168e-06
 Reference value :  9.20168e-06
 Reference value :  9.22168e-06
 Reference value :  9.24168e-06
 Reference value :  9.26168e-06
 Reference value :  9.28168e-06
 Reference value :  9.30168e-06
 Reference value :  9.32168e-06
 Reference value :  9.34168e-06
 Reference value :  9.36168e-06
 Reference value :  9.38168e-06
 Reference value :  9.40168e-06
 Reference value :  9.42168e-06
 Reference value :  9.44168e-06
 Reference value :  9.46168e-06
 Reference value :  9.48168e-06
 Reference value :  9.50168e-06
 Reference value :  9.52168e-06
 Reference value :  9.54168e-06
 Reference value :  9.56168e-06
 Reference value :  9.58168e-06
 Reference value :  9.60168e-06
 Reference value :  9.62168e-06
 Reference value :  9.64168e-06
 Reference value :  9.66168e-06
 Reference value :  9.68168e-06
 Reference value :  9.70168e-06
 Reference value :  9.72168e-06
 Reference value :  9.74168e-06
 Reference value :  9.76168e-06
 Reference value :  9.78168e-06
 Reference value :  9.80168e-06
 Reference value :  9.82168e-06
 Reference value :  9.84168e-06
 Reference value :  9.86168e-06
 Reference value :  9.88168e-06
 Reference value :  9.90168e-06
 Reference value :  9.92168e-06
 Reference value :  9.94168e-06
 Reference value :  9.96168e-06
 Reference value :  9.98168e-06
 Reference value :  1.00017e-05
 Reference value :  1.00217e-05
 Reference value :  1.00417e-05
 Reference value :  1.00617e-05
 Reference value :  1.00817e-05
 Reference value :  1.01017e-05
 Reference value :  1.01117e-05
 Reference value :  1.01317e-05
 Reference value :  1.01517e-05
 Reference value :  1.01717e-05
 Reference value :  1.01917e-05
 Reference value :  1.02117e-05
 Reference value :  1.02317e-05
 Reference value :  1.02517e-05
 Reference value :  1.02717e-05
 Reference value :  1.02917e-05
 Reference value :  1.03217e-05
 Reference value :  1.03417e-05
 Reference value :  1.03617e-05
 Reference value :  1.03817e-05
 Reference value :  1.04017e-05
 Reference value :  1.04217e-05
 Reference value :  1.04417e-05
 Reference value :  1.04617e-05
 Reference value :  1.04817e-05
 Reference value :  1.05017e-05
 Reference value :  1.05217e-05
 Reference value :  1.05417e-05
 Reference value :  1.05617e-05
 Reference value :  1.05817e-05
 Reference value :  1.06017e-05
 Reference value :  1.06217e-05
 Reference value :  1.06417e-05
 Reference value :  1.06617e-05
 Reference value :  1.06817e-05
 Reference value :  1.07017e-05
 Reference value :  1.07217e-05
 Reference value :  1.07417e-05
 Reference value :  1.07617e-05
 Reference value :  1.07817e-05
 Reference value :  1.08017e-05
 Reference value :  1.08217e-05
 Reference value :  1.08417e-05
 Reference value :  1.08617e-05
 Reference value :  1.08817e-05
 Reference value :  1.09017e-05
 Reference value :  1.09217e-05
 Reference value :  1.09417e-05
 Reference value :  1.09617e-05
 Reference value :  1.09817e-05
 Reference value :  1.10017e-05
 Reference value :  1.10217e-05
 Reference value :  1.10417e-05
 Reference value :  1.10617e-05
 Reference value :  1.10817e-05
 Reference value :  1.11017e-05
 Reference value :  1.11217e-05
 Reference value :  1.11417e-05
 Reference value :  1.11617e-05
 Reference value :  1.11817e-05
 Reference value :  1.12017e-05
 Reference value :  1.12217e-05
 Reference value :  1.12417e-05
 Reference value :  1.12617e-05
 Reference value :  1.12817e-05
 Reference value :  1.13017e-05
 Reference value :  1.13217e-05
 Reference value :  1.13417e-05
 Reference value :  1.13617e-05
 Reference value :  1.13817e-05
 Reference value :  1.14017e-05
 Reference value :  1.14217e-05
 Reference value :  1.14417e-05
 Reference value :  1.14717e-05
 Reference value :  1.15017e-05
 Reference value :  1.15217e-05
 Reference value :  1.15417e-05
 Reference value :  1.15617e-05
 Reference value :  1.15817e-05
 Reference value :  1.16017e-05
 Reference value :  1.16217e-05
 Reference value :  1.16417e-05
 Reference value :  1.16617e-05
 Reference value :  1.16817e-05
 Reference value :  1.17017e-05
 Reference value :  1.17217e-05
 Reference value :  1.17417e-05
 Reference value :  1.17617e-05
 Reference value :  1.17817e-05
 Reference value :  1.18017e-05
 Reference value :  1.18217e-05
 Reference value :  1.18417e-05
 Reference value :  1.18617e-05
 Reference value :  1.18817e-05
 Reference value :  1.19017e-05
 Reference value :  1.19217e-05
 Reference value :  1.19417e-05
 Reference value :  1.19617e-05
 Reference value :  1.19817e-05
 Reference value :  1.20017e-05
 Reference value :  1.20217e-05
 Reference value :  1.20417e-05
 Reference value :  1.20617e-05
 Reference value :  1.20817e-05
 Reference value :  1.21017e-05
 Reference value :  1.21217e-05
 Reference value :  1.21417e-05
 Reference value :  1.21617e-05
 Reference value :  1.21817e-05
 Reference value :  1.22017e-05
 Reference value :  1.22217e-05
 Reference value :  1.22417e-05
 Reference value :  1.22617e-05
 Reference value :  1.22817e-05
 Reference value :  1.23017e-05
 Reference value :  1.23217e-05
 Reference value :  1.23417e-05
 Reference value :  1.23617e-05
 Reference value :  1.23817e-05
 Reference value :  1.24017e-05
 Reference value :  1.24217e-05
 Reference value :  1.24417e-05
 Reference value :  1.24617e-05
 Reference value :  1.24817e-05
 Reference value :  1.25017e-05
 Reference value :  1.25217e-05
 Reference value :  1.25417e-05
 Reference value :  1.25617e-05
 Reference value :  1.25817e-05
 Reference value :  1.26017e-05
 Reference value :  1.26217e-05
 Reference value :  1.26417e-05
 Reference value :  1.26617e-05
 Reference value :  1.26817e-05
 Reference value :  1.27017e-05
 Reference value :  1.27217e-05
 Reference value :  1.27517e-05
 Reference value :  1.27817e-05
 Reference value :  1.28017e-05
 Reference value :  1.28217e-05
 Reference value :  1.28417e-05
 Reference value :  1.28717e-05
 Reference value :  1.28917e-05
 Reference value :  1.29117e-05
 Reference value :  1.29317e-05
 Reference value :  1.29617e-05
 Reference value :  1.29817e-05
 Reference value :  1.30017e-05
 Reference value :  1.30217e-05
 Reference value :  1.30417e-05
 Reference value :  1.30617e-05
 Reference value :  1.30817e-05
 Reference value :  1.31017e-05
 Reference value :  1.31217e-05
 Reference value :  1.31417e-05
 Reference value :  1.31617e-05
 Reference value :  1.31817e-05
 Reference value :  1.32017e-05
 Reference value :  1.32217e-05
 Reference value :  1.32417e-05
 Reference value :  1.32617e-05
 Reference value :  1.32817e-05
 Reference value :  1.33017e-05
 Reference value :  1.33217e-05
 Reference value :  1.33417e-05
 Reference value :  1.33617e-05
 Reference value :  1.33817e-05
 Reference value :  1.34017e-05
 Reference value :  1.34217e-05
 Reference value :  1.34417e-05
 Reference value :  1.34617e-05
 Reference value :  1.34817e-05
 Reference value :  1.35017e-05
 Reference value :  1.35217e-05
 Reference value :  1.35417e-05
 Reference value :  1.35617e-05
 Reference value :  1.35817e-05
 Reference value :  1.36017e-05
 Reference value :  1.36217e-05
 Reference value :  1.36417e-05
 Reference value :  1.36617e-05
 Reference value :  1.36817e-05
 Reference value :  1.37017e-05
 Reference value :  1.37217e-05
 Reference value :  1.37417e-05
 Reference value :  1.37617e-05
 Reference value :  1.37817e-05
 Reference value :  1.38017e-05
 Reference value :  1.38217e-05
 Reference value :  1.38417e-05
 Reference value :  1.38617e-05
 Reference value :  1.38817e-05
 Reference value :  1.39017e-05
 Reference value :  1.39217e-05
 Reference value :  1.39417e-05
 Reference value :  1.39617e-05
 Reference value :  1.39817e-05
 Reference value :  1.40017e-05
 Reference value :  1.40217e-05
 Reference value :  1.40417e-05
 Reference value :  1.40617e-05
 Reference value :  1.40817e-05
 Reference value :  1.41017e-05
 Reference value :  1.41217e-05
 Reference value :  1.41417e-05
 Reference value :  1.41617e-05
 Reference value :  1.41717e-05
 Reference value :  1.41917e-05
 Reference value :  1.42117e-05
 Reference value :  1.42317e-05
 Reference value :  1.42517e-05
 Reference value :  1.42717e-05
 Reference value :  1.42917e-05
 Reference value :  1.43117e-05
 Reference value :  1.43317e-05
 Reference value :  1.43517e-05
 Reference value :  1.43717e-05
 Reference value :  1.43917e-05
 Reference value :  1.44217e-05
 Reference value :  1.44517e-05
 Reference value :  1.44817e-05
 Reference value :  1.45017e-05
 Reference value :  1.45217e-05
 Reference value :  1.45417e-05
 Reference value :  1.45617e-05
 Reference value :  1.45817e-05
 Reference value :  1.46017e-05
 Reference value :  1.46217e-05
 Reference value :  1.46417e-05
 Reference value :  1.46717e-05
 Reference value :  1.46917e-05
 Reference value :  1.47117e-05
 Reference value :  1.47417e-05
 Reference value :  1.47617e-05
 Reference value :  1.47817e-05
 Reference value :  1.48017e-05
 Reference value :  1.48217e-05
 Reference value :  1.48417e-05
 Reference value :  1.48617e-05
 Reference value :  1.48817e-05
 Reference value :  1.49017e-05
 Reference value :  1.49217e-05
 Reference value :  1.49417e-05
 Reference value :  1.49617e-05
 Reference value :  1.49817e-05
 Reference value :  1.50017e-05
 Reference value :  1.50217e-05
 Reference value :  1.50417e-05
 Reference value :  1.50617e-05
 Reference value :  1.50817e-05
 Reference value :  1.51017e-05
 Reference value :  1.51217e-05
 Reference value :  1.51417e-05
 Reference value :  1.51517e-05
 Reference value :  1.51717e-05
 Reference value :  1.51917e-05
 Reference value :  1.52117e-05
 Reference value :  1.52317e-05
 Reference value :  1.52517e-05
 Reference value :  1.52717e-05
 Reference value :  1.52917e-05
 Reference value :  1.53117e-05
 Reference value :  1.53317e-05
 Reference value :  1.53517e-05
 Reference value :  1.53717e-05
 Reference value :  1.53917e-05
 Reference value :  1.54117e-05
 Reference value :  1.54317e-05
 Reference value :  1.54517e-05
 Reference value :  1.54717e-05
 Reference value :  1.54917e-05
 Reference value :  1.55117e-05
 Reference value :  1.55317e-05
 Reference value :  1.55517e-05
 Reference value :  1.55717e-05
 Reference value :  1.55917e-05
 Reference value :  1.56117e-05
 Reference value :  1.56317e-05
 Reference value :  1.56517e-05
 Reference value :  1.56717e-05
 Reference value :  1.56917e-05
 Reference value :  1.57217e-05
 Reference value :  1.57417e-05
 Reference value :  1.57617e-05
 Reference value :  1.57817e-05
 Reference value :  1.58017e-05
 Reference value :  1.58217e-05
 Reference value :  1.58417e-05
 Reference value :  1.58617e-05
 Reference value :  1.58817e-05
 Reference value :  1.59117e-05
 Reference value :  1.59317e-05
 Reference value :  1.59517e-05
 Reference value :  1.59717e-05
 Reference value :  1.59917e-05
 Reference value :  1.60117e-05
 Reference value :  1.60317e-05
 Reference value :  1.60517e-05
 Reference value :  1.60717e-05
 Reference value :  1.60917e-05
 Reference value :  1.61117e-05
 Reference value :  1.61317e-05
 Reference value :  1.61517e-05
 Reference value :  1.61717e-05
 Reference value :  1.61917e-05
 Reference value :  1.62117e-05
 Reference value :  1.62317e-05
 Reference value :  1.62517e-05
 Reference value :  1.62717e-05
 Reference value :  1.62917e-05
 Reference value :  1.63117e-05
 Reference value :  1.63317e-05
 Reference value :  1.63517e-05
 Reference value :  1.63717e-05
 Reference value :  1.63917e-05
 Reference value :  1.64117e-05
 Reference value :  1.64317e-05
 Reference value :  1.64517e-05
 Reference value :  1.64717e-05
 Reference value :  1.64917e-05
 Reference value :  1.65117e-05
 Reference value :  1.65317e-05
 Reference value :  1.65517e-05
 Reference value :  1.65717e-05
 Reference value :  1.65917e-05
 Reference value :  1.66117e-05
 Reference value :  1.66317e-05
 Reference value :  1.66517e-05
 Reference value :  1.66717e-05
 Reference value :  1.66917e-05
 Reference value :  1.67117e-05
 Reference value :  1.67317e-05
 Reference value :  1.67517e-05
 Reference value :  1.67717e-05
 Reference value :  1.67917e-05
 Reference value :  1.68117e-05
 Reference value :  1.68317e-05
 Reference value :  1.68517e-05
 Reference value :  1.68717e-05
 Reference value :  1.68917e-05
 Reference value :  1.69117e-05
 Reference value :  1.69317e-05
 Reference value :  1.69517e-05
 Reference value :  1.69717e-05
 Reference value :  1.69917e-05
 Reference value :  1.70117e-05
 Reference value :  1.70317e-05
 Reference value :  1.70517e-05
 Reference value :  1.70717e-05
 Reference value :  1.70917e-05
 Reference value :  1.71117e-05
 Reference value :  1.71317e-05
 Reference value :  1.71517e-05
 Reference value :  1.71717e-05
 Reference value :  1.71917e-05
 Reference value :  1.72117e-05
 Reference value :  1.72317e-05
 Reference value :  1.72517e-05
 Reference value :  1.72717e-05
 Reference value :  1.72917e-05
 Reference value :  1.73117e-05
 Reference value :  1.73317e-05
 Reference value :  1.73517e-05
 Reference value :  1.73817e-05
 Reference value :  1.74017e-05
 Reference value :  1.74217e-05
 Reference value :  1.74417e-05
 Reference value :  1.74617e-05
 Reference value :  1.74817e-05
 Reference value :  1.75017e-05
 Reference value :  1.75217e-05
 Reference value :  1.75417e-05
 Reference value :  1.75617e-05
 Reference value :  1.75817e-05
 Reference value :  1.76017e-05
 Reference value :  1.76217e-05
 Reference value :  1.76417e-05
 Reference value :  1.76617e-05
 Reference value :  1.76817e-05
 Reference value :  1.77017e-05
 Reference value :  1.77217e-05
 Reference value :  1.77417e-05
 Reference value :  1.77617e-05
 Reference value :  1.77817e-05
 Reference value :  1.78017e-05
 Reference value :  1.78217e-05
 Reference value :  1.78417e-05
 Reference value :  1.78617e-05
 Reference value :  1.78817e-05
 Reference value :  1.79017e-05
 Reference value :  1.79217e-05
 Reference value :  1.79417e-05
 Reference value :  1.79617e-05
 Reference value :  1.79817e-05
 Reference value :  1.80017e-05
 Reference value :  1.80217e-05
 Reference value :  1.80417e-05
 Reference value :  1.80617e-05
 Reference value :  1.80817e-05
 Reference value :  1.81017e-05
 Reference value :  1.81217e-05
 Reference value :  1.81417e-05
 Reference value :  1.81617e-05
 Reference value :  1.81817e-05
 Reference value :  1.82017e-05
 Reference value :  1.82217e-05
 Reference value :  1.82417e-05
 Reference value :  1.82717e-05
 Reference value :  1.82917e-05
 Reference value :  1.83117e-05
 Reference value :  1.83317e-05
 Reference value :  1.83517e-05
 Reference value :  1.83617e-05
 Reference value :  1.83817e-05
 Reference value :  1.84017e-05
 Reference value :  1.84217e-05
 Reference value :  1.84417e-05
 Reference value :  1.84617e-05
 Reference value :  1.84817e-05
 Reference value :  1.85017e-05
 Reference value :  1.85117e-05
 Reference value :  1.85217e-05
 Reference value :  1.85317e-05
 Reference value :  1.85417e-05
 Reference value :  1.85617e-05
 Reference value :  1.85817e-05
 Reference value :  1.86017e-05
 Reference value :  1.86217e-05
 Reference value :  1.86417e-05
 Reference value :  1.86617e-05
 Reference value :  1.86817e-05
 Reference value :  1.87017e-05
 Reference value :  1.87317e-05
 Reference value :  1.87517e-05
 Reference value :  1.87717e-05
 Reference value :  1.87917e-05
 Reference value :  1.88117e-05
 Reference value :  1.88317e-05
 Reference value :  1.88517e-05
 Reference value :  1.88717e-05
 Reference value :  1.88917e-05
 Reference value :  1.89117e-05
 Reference value :  1.89317e-05
 Reference value :  1.89517e-05
 Reference value :  1.89717e-05
 Reference value :  1.89917e-05
 Reference value :  1.90117e-05
 Reference value :  1.90317e-05
 Reference value :  1.90517e-05
 Reference value :  1.90717e-05
 Reference value :  1.90917e-05
 Reference value :  1.91117e-05
 Reference value :  1.91317e-05
 Reference value :  1.91517e-05
 Reference value :  1.91717e-05
 Reference value :  1.91917e-05
 Reference value :  1.92117e-05
 Reference value :  1.92317e-05
 Reference value :  1.92617e-05
 Reference value :  1.92917e-05
 Reference value :  1.93217e-05
 Reference value :  1.93517e-05
 Reference value :  1.93817e-05
 Reference value :  1.94117e-05
 Reference value :  1.94417e-05
 Reference value :  1.94717e-05
 Reference value :  1.95017e-05
 Reference value :  1.95317e-05
 Reference value :  1.95617e-05
 Reference value :  1.96017e-05
 Reference value :  1.96317e-05
 Reference value :  1.96617e-05
 Reference value :  1.96917e-05
 Reference value :  1.97217e-05
 Reference value :  1.97517e-05
 Reference value :  1.97817e-05
 Reference value :  1.98217e-05
 Reference value :  1.98517e-05
 Reference value :  1.98817e-05
 Reference value :  1.99117e-05
 Reference value :  1.99417e-05
 Reference value :  1.99717e-05
 Reference value :  2.00000e-05
No. of Data Rows : 2025
 meas tran sr_pos max deriv(v(vout)) failed!

 meas tran sr_neg min deriv(v(vout)) failed!

Note: Simulation executed from .control section 
