
Note: Compatibility modes selected: hs a


Circuit: ** sch_path: /foss/designs/sky130_op_amp/runs/run_2025-10-21_19-47-49/parameters/gain_mc/run_2/run_0/sky130_op_amp_tb.sch

option SCALE: Scale is set to 1e-06 for instance and model parameters
option SCALE: Scale is set to 1e-06 for instance and model parameters
option SCALE: Scale is set to 1e-06 for instance and model parameters
option SCALE: Scale is set to 1e-06 for instance and model parameters
Doing analysis at TEMP = 130.000000 and TNOM = 27.000000

Using SPARSE 1.3 as Direct Linear Solver
 Reference value :  1.00000e+03
 Reference value :  1.58489e+03
 Reference value :  2.51189e+03
 Reference value :  3.98107e+03
 Reference value :  6.30957e+03
 Reference value :  1.00000e+04
 Reference value :  1.58489e+04
 Reference value :  2.23872e+04
 Reference value :  3.16228e+04
 Reference value :  4.46684e+04
 Reference value :  7.07946e+04
 Reference value :  1.00000e+05
 Reference value :  1.58489e+05
 Reference value :  2.51189e+05
 Reference value :  4.46684e+05
 Reference value :  7.94328e+05
 Reference value :  1.41254e+06
 Reference value :  2.51189e+06
 Reference value :  4.46684e+06
 Reference value :  7.94328e+06
 Reference value :  1.58489e+07
 Reference value :  3.16228e+07
 Reference value :  6.30957e+07
No. of Data Rows : 101
a0                  =  2.232175e+02
ugf                 =  6.161035e+06
pm                  =  8.542750e+01
Note: Simulation executed from .control section 
