
Note: Compatibility modes selected: hs a


Circuit: ** sch_path: /foss/designs/sky130_op_amp/runs/run_2025-10-21_18-28-34/parameters/spice_params/run_0/sky130_op_amp_tb.sch

option SCALE: Scale is set to 1e-06 for instance and model parameters
option SCALE: Scale is set to 1e-06 for instance and model parameters
option SCALE: Scale is set to 1e-06 for instance and model parameters
option SCALE: Scale is set to 1e-06 for instance and model parameters
Doing analysis at TEMP = 27.000000 and TNOM = 27.000000

Using SPARSE 1.3 as Direct Linear Solver
 Reference value :  1.00000e+03
 Reference value :  3.54813e+04
 Reference value :  1.41254e+06
 Reference value :  7.94328e+07
No. of Data Rows : 101
a0                  =  3.734044e+03
ugf                 =  1.157190e+07
 meas ac pm find 180+vout_phase when vout_mag=1 failed!

Doing analysis at TEMP = 27.000000 and TNOM = 27.000000

Using SPARSE 1.3 as Direct Linear Solver
 Reference value : -1.00000e-03
 Reference value :  0.00000e+00
 Reference value :  1.00000e-03
No. of Data Rows : 3
vout_offset         =  1.010853e+00
Doing analysis at TEMP = 27.000000 and TNOM = 27.000000

Using SPARSE 1.3 as Direct Linear Solver
 Reference value : -5.00000e-03
 Reference value : -4.00000e-03
 Reference value : -3.00000e-03
 Reference value : -2.00000e-03
 Reference value : -1.00000e-03
 Reference value :  0.00000e+00
 Reference value :  1.00000e-03
 Reference value :  2.00000e-03
 Reference value :  3.00000e-03
 Reference value :  4.00000e-03
 Reference value :  5.00000e-03
No. of Data Rows : 11
