
Note: Compatibility modes selected: hs a


Circuit: ** sch_path: /foss/designs/sky130_op_amp/runs/run_2025-10-21_18-52-57/parameters/slew_rate/run_30/transient.sch

option SCALE: Scale is set to 1e-06 for instance and model parameters
option SCALE: Scale is set to 1e-06 for instance and model parameters
option SCALE: Scale is set to 1e-06 for instance and model parameters
option SCALE: Scale is set to 1e-06 for instance and model parameters
Doing analysis at TEMP = 130.000000 and TNOM = 27.000000

Using SPARSE 1.3 as Direct Linear Solver

Initial Transient Solution
--------------------------

Node                                   Voltage
----                                   -------
vdd                                        1.7
ibias                                 0.622969
vout                               1.34826e-05
vss                                          0
vn                                 1.34826e-05
vp                                           0
x1.a_8862_4192.t27                  0.00140633
x1.en.t0                                   1.7
x1.vss.t311                        9.30109e-05
x1.vss.t215                        5.47376e-05
x1.vdd.t97                                 1.7
x1.vdd.t96                                 1.7
x1.vdd.t44                                 1.7
x1.vdd.t95                                 1.7
x1.vdd.t93                                 1.7
x1.vdd.t94                                 1.7
x1.vdd.t47                                 1.7
x1.a_3868_4185.t39                 1.21641e-05
x1.ibias.t10                          0.622948
x1.a_3329_8823.t39                 1.25931e-05
x1.vss.t0                          1.41674e-05
x1.a_n1962_4406.t59                1.22745e-05
x1.ibias.t11                          0.622948
x1.vout.t21                        1.34422e-05
x1.vss.t6                          1.22159e-05
x1.a_n1962_4406.t58                1.22745e-05
x1.ibias.t12                          0.622948
x1.vout.t53                        1.34426e-05
x1.vss.t211                         5.3538e-05
x1.vss.t209                        5.36974e-05
x1.vss.t210                        6.85613e-05
x1.vss.t30                         5.01469e-05
x1.a_3329_8823.t38                 1.25931e-05
x1.ibias.t13                          0.622948
x1.a_3868_4185.t38                 1.21641e-05
x1.vss.t1                          1.40054e-05
x1.vss.t208                         1.2206e-05
x1.vss.t207                        1.22057e-05
x1.vss.t64                         1.40942e-05
x1.vdd.t92                                 1.7
x1.vdd.t91                                 1.7
x1.vdd.t71                                 1.7
x1.a_3868_4185.t37                 1.21641e-05
x1.ibias.t14                          0.622948
x1.a_3329_8823.t8                  1.25931e-05
x1.vss.t11                         1.38454e-05
x1.a_n735_8972.t23                     1.41174
x1.vp.t0                                     0
x1.a_3329_8823.t56                 1.25986e-05
x1.vss.t2                          1.36004e-05
x1.vss.t310                         1.2127e-05
x1.en.t1                                   1.7
x1.a_n1962_4406.t123               1.22726e-05
x1.vss.t77                         1.22224e-05
x1.a_3868_4185.t36                 1.21629e-05
x1.ibias.t15                          0.622948
x1.a_3329_8823.t17                 1.25932e-05
x1.vss.t7                          1.45398e-05
x1.a_3329_8823.t66                 1.25988e-05
x1.vn.t0                           1.34826e-05
x1.a_n935_8875.t15                     1.41094
x1.vss.t4                          1.37188e-05
x1.vdd.t19                                 1.7
x1.a_n735_8972.t27                     1.41174
x1.vout.t67                           1.35e-05
x1.vdd.t15                                 1.7
x1.a_n1962_4406.t122               1.22738e-05
x1.en.t2                                   1.7
x1.vss.t309                         1.2127e-05
x1.vss.t8                          1.22214e-05
x1.a_3329_8823.t65                 1.25986e-05
x1.vn.t1                           1.34826e-05
x1.a_n935_8875.t14                     1.41094
x1.vss.t5                          1.34826e-05
x1.vdd.t36                                 1.7
x1.a_n735_8972.t28                     1.41174
x1.vout.t77                        1.34988e-05
x1.vdd.t5                                  1.7
x1.vss.t206                        1.22057e-05
x1.vss.t205                        1.22057e-05
x1.a_3329_8823.t55                  1.2598e-05
x1.a_n1962_4406.t57                1.22775e-05
x1.ibias.t16                          0.622948
x1.vout.t45                        1.34419e-05
x1.vss.t212                        1.22177e-05
x1.a_n1962_4406.t56                1.22746e-05
x1.ibias.t17                          0.622948
x1.vout.t2                          1.3442e-05
x1.vss.t308                         1.2127e-05
x1.en.t3                                   1.7
x1.a_n1962_4406.t121               1.22739e-05
x1.vss.t19                         1.22186e-05
x1.a_3329_8823.t43                 1.25987e-05
x1.vn.t2                           1.34826e-05
x1.a_n935_8875.t13                     1.41094
x1.vdd.t90                                 1.7
x1.vdd.t89                                 1.7
x1.a_n1962_4406.t79                1.22759e-05
x1.vss.t203                         1.2112e-05
x1.vss.t204                         1.2112e-05
x1.vss.t20                         1.22195e-05
x1.a_n1962_4406.t120               1.22739e-05
x1.en.t4                                   1.7
x1.vss.t307                        1.21287e-05
x1.vout.t38                         1.3442e-05
x1.ibias.t18                          0.622948
x1.a_n1962_4406.t55                1.22745e-05
x1.vss.t12                         1.22205e-05
x1.vss.t202                         1.2112e-05
x1.vss.t201                         1.2112e-05
x1.a_n1962_4406.t78                 1.2273e-05
x1.vss.t56                         1.22245e-05
x1.vdd.t88                                 1.7
x1.vdd.t87                                 1.7
x1.a_n935_8875.t12                     1.41094
x1.vn.t3                           1.34826e-05
x1.a_3329_8823.t62                  1.2598e-05
x1.vss.t84                         1.33357e-05
x1.vout.t46                        1.34418e-05
x1.ibias.t19                          0.622948
x1.a_n1962_4406.t54                1.22775e-05
x1.vss.t9                          1.22168e-05
x1.vdd.t86                                 1.7
x1.vdd.t84                                 1.7
x1.vdd.t85                                 1.7
x1.a_3329_8823.t63                 1.25982e-05
x1.vp.t1                                     0
x1.a_n735_8972.t22                     1.41174
x1.vss.t89                         1.39574e-05
x1.vss.t306                        1.21286e-05
x1.en.t5                                   1.7
x1.a_n1962_4406.t119               1.22739e-05
x1.vdd.t17                                 1.7
x1.a_n735_8972.t29                     1.41174
x1.vout.t65                        1.35013e-05
x1.vdd.t16                                 1.7
x1.a_n735_8972.t30                     1.41174
x1.vout.t64                        1.35011e-05
x1.vss.t198                         1.2112e-05
x1.vss.t197                         1.2112e-05
x1.a_n1962_4406.t53                1.22762e-05
x1.ibias.t20                          0.622948
x1.vout.t42                        1.34418e-05
x1.vss.t45                         1.22173e-05
x1.vout.t35                        1.34418e-05
x1.ibias.t21                          0.622948
x1.a_n1962_4406.t52                1.22746e-05
x1.vss.t16                          1.2215e-05
x1.vss.t200                        1.20882e-05
x1.vss.t199                        1.20882e-05
x1.a_3868_4185.t55                 1.21623e-05
x1.vss.t27                         1.57202e-05
x1.vss.t196                        1.20882e-05
x1.vss.t195                        1.20882e-05
x1.a_3868_4185.t54                 1.21623e-05
x1.a_n1962_4406.t77                1.22759e-05
x1.vss.t193                         1.2112e-05
x1.vss.t194                         1.2112e-05
x1.vss.t38                         1.22236e-05
x1.a_3329_8823.t42                 1.25987e-05
x1.vn.t4                           1.34826e-05
x1.a_n935_8875.t11                     1.41094
x1.a_n1962_4406.t118               1.22739e-05
x1.en.t6                                   1.7
x1.vss.t305                        1.21269e-05
x1.vss.t15                         1.22147e-05
x1.a_n1962_4406.t117               1.22739e-05
x1.en.t7                                   1.7
x1.vss.t304                        1.21234e-05
x1.vss.t192                        7.03624e-05
x1.vss.t191                        6.30196e-05
x1.vss.t22                         5.73672e-05
x1.a_n735_8972.t21                     1.41174
x1.vp.t2                                     0
x1.a_3329_8823.t73                 1.25986e-05
x1.vss.t313                        1.39912e-05
x1.a_n1962_4406.t51                1.22746e-05
x1.ibias.t22                          0.622948
x1.vout.t9                         1.34423e-05
x1.a_n1962_4406.t116               1.22739e-05
x1.en.t8                                   1.7
x1.vss.t303                        1.21198e-05
x1.a_3329_8823.t35                 1.25934e-05
x1.ibias.t23                          0.622948
x1.a_3868_4185.t35                 1.21637e-05
x1.vss.t14                         1.36837e-05
x1.ibias.t7                           0.622735
x1.ibias.t6                           0.622937
x1.a_8862_4192.t0                   0.00163644
x1.vss.t214                        5.33338e-05
x1.vss.t302                        0.000103863
x1.en.t9                                   1.7
x1.a_8862_4192.t26                  0.00140559
x1.a_n935_8875.t33                     1.41094
x1.a_n935_8875.t32                     1.41094
x1.vdd.t110                                1.7
x1.vdd.t8                                  1.7
x1.a_n1962_4406.t50                1.22746e-05
x1.ibias.t24                          0.622948
x1.vout.t3                         1.34427e-05
x1.vss.t190                         1.2112e-05
x1.vss.t188                         1.2112e-05
x1.vss.t189                         1.2112e-05
x1.vout.t0                         1.34422e-05
x1.ibias.t25                          0.622948
x1.a_n1962_4406.t49                1.22746e-05
x1.vout.t6                         1.34426e-05
x1.ibias.t26                          0.622948
x1.a_n1962_4406.t48                1.22746e-05
x1.a_3868_4185.t53                 1.21636e-05
x1.vss.t186                        1.20882e-05
x1.vss.t187                        1.20882e-05
x1.vss.t51                          1.3515e-05
x1.a_8862_4192.t25                  0.00140552
x1.en.t10                                  1.7
x1.vss.t301                        7.70593e-05
x1.vss.t219                        5.18436e-05
x1.vss.t185                        5.90675e-05
x1.vss.t183                         5.9154e-05
x1.vss.t184                        7.40031e-05
x1.vdd.t7                                  1.7
x1.a_n735_8972.t31                     1.41174
x1.vout.t62                        1.35001e-05
x1.a_n735_8972.t7                      1.41174
x1.x62.x0.t1                           1.41174
x1.x62.x0.t2                           1.41174
x1.a_9909_7861.t0                      1.41174
x1.vss.t218                        5.90488e-05
x1.x62.x0.rbody_3                            0
x1.a_3868_4185.t34                 1.21636e-05
x1.ibias.t27                          0.622948
x1.a_3329_8823.t4                  1.25933e-05
x1.vss.t10                         1.51787e-05
x1.a_8862_4192.t3                   0.00163644
x1.ibias.t4                           0.622936
x1.ibias.t5                           0.622824
x1.vss.t300                        1.21303e-05
x1.en.t11                                  1.7
x1.a_n1962_4406.t115                1.2274e-05
x1.vss.t17                         1.22152e-05
x1.a_n1962_4406.t114               1.22726e-05
x1.en.t12                                  1.7
x1.vss.t299                        1.21215e-05
x1.vss.t182                         1.2112e-05
x1.vss.t181                         1.2112e-05
x1.a_n735_8972.t24                     1.41174
x1.a_n935_8875.t34                     1.41094
x1.vdd.t103                                1.7
x1.vdd.t30                                 1.7
x1.vss.t180                        1.22058e-05
x1.vss.t179                        1.22058e-05
x1.a_3329_8823.t54                  1.2598e-05
x1.a_3329_8823.t2                  1.25933e-05
x1.ibias.t28                          0.622948
x1.a_3868_4185.t33                 1.21641e-05
x1.vss.t13                         1.48278e-05
x1.vss.t178                        6.88931e-05
x1.vss.t177                        6.15429e-05
x1.vss.t293                        1.20951e-05
x1.en.t13                                  1.7
x1.a_3868_4185.t79                 1.21626e-05
x1.vss.t18                         1.43377e-05
x1.a_n935_8875.t10                     1.41094
x1.vn.t5                           1.34826e-05
x1.a_3329_8823.t64                 1.25987e-05
x1.vss.t298                        1.21215e-05
x1.en.t14                                  1.7
x1.a_n1962_4406.t113               1.22738e-05
x1.vss.t176                         1.2112e-05
x1.vss.t175                         1.2112e-05
x1.a_n1962_4406.t76                1.22759e-05
x1.a_3329_8823.t71                 1.25981e-05
x1.vn.t6                           1.34826e-05
x1.a_n935_8875.t9                      1.41094
x1.vdd.t83                                 1.7
x1.vdd.t82                                 1.7
x1.a_3868_4185.t78                 1.21626e-05
x1.en.t15                                  1.7
x1.vss.t297                        1.20953e-05
x1.a_3868_4185.t77                 1.21626e-05
x1.en.t16                                  1.7
x1.vss.t296                        1.20952e-05
x1.vdd.t33                                 1.7
x1.a_n735_8972.t32                     1.41174
x1.vout.t75                        1.35013e-05
x1.vss.t295                        9.15968e-05
x1.en.t17                                  1.7
x1.a_8862_4192.t24                   0.0014049
x1.a_3329_8823.t28                 1.25932e-05
x1.ibias.t29                          0.622948
x1.a_3868_4185.t32                 1.21637e-05
x1.a_3329_8823.t77                 1.25988e-05
x1.vp.t3                                     0
x1.a_n735_8972.t20                     1.41174
x1.vdd.t105                                1.7
x1.a_n735_8972.t33                     1.41174
x1.vout.t86                        1.35005e-05
x1.a_3868_4185.t31                 1.21629e-05
x1.ibias.t30                          0.622948
x1.a_3329_8823.t11                 1.25931e-05
x1.a_n1962_4406.t112               1.22738e-05
x1.en.t18                                  1.7
x1.vss.t294                        1.21252e-05
x1.a_8862_4192.t23                  0.00140484
x1.en.t19                                  1.7
x1.vss.t292                        7.22233e-05
x1.vss.t174                        5.45752e-05
x1.vss.t172                        5.45962e-05
x1.vss.t173                        6.93186e-05
x1.a_3329_8823.t12                 1.25931e-05
x1.ibias.t31                          0.622948
x1.a_3868_4185.t30                 1.21629e-05
x1.a_3868_4185.t52                 1.21635e-05
x1.vss.t170                        1.20882e-05
x1.vss.t171                        1.20882e-05
x1.vout.t49                        1.34424e-05
x1.ibias.t32                          0.622948
x1.a_n1962_4406.t47                1.22745e-05
x1.vout.t28                        1.34428e-05
x1.ibias.t33                          0.622948
x1.a_n1962_4406.t46                1.22745e-05
x1.a_n1962_4406.t45                1.22762e-05
x1.ibias.t34                          0.622948
x1.vout.t57                        1.34431e-05
x1.a_3868_4185.t76                 1.21622e-05
x1.en.t20                                  1.7
x1.vss.t291                        1.20951e-05
x1.a_3329_8823.t61                 1.25987e-05
x1.vp.t4                                     0
x1.a_n735_8972.t19                     1.41174
x1.vout.t69                        1.35013e-05
x1.a_n735_8972.t34                     1.41174
x1.vdd.t23                                 1.7
x1.vdd.t13                                 1.7
x1.vss.t130                         1.2112e-05
x1.vss.t129                         1.2112e-05
x1.a_3868_4185.t75                 1.21626e-05
x1.en.t21                                  1.7
x1.vss.t290                        1.20951e-05
x1.vss.t289                        1.20951e-05
x1.en.t22                                  1.7
x1.a_3868_4185.t74                 1.21626e-05
x1.vout.t54                         1.3442e-05
x1.ibias.t35                          0.622948
x1.a_n1962_4406.t44                1.22762e-05
x1.a_3868_4185.t29                 1.21641e-05
x1.ibias.t36                          0.622948
x1.a_3329_8823.t18                 1.25931e-05
x1.vss.t169                         1.2112e-05
x1.vss.t168                         1.2112e-05
x1.a_n1962_4406.t43                1.22746e-05
x1.ibias.t37                          0.622948
x1.vout.t52                         1.3442e-05
x1.vout.t25                        1.34419e-05
x1.ibias.t38                          0.622948
x1.a_n1962_4406.t42                1.22762e-05
x1.vss.t167                         1.2112e-05
x1.vss.t166                         1.2112e-05
x1.vout.t26                         1.3442e-05
x1.ibias.t39                          0.622948
x1.a_n1962_4406.t41                1.22746e-05
x1.vss.t165                         1.2112e-05
x1.vss.t164                         1.2112e-05
x1.a_n1962_4406.t75                1.22759e-05
x1.vss.t288                        1.21287e-05
x1.en.t23                                  1.7
x1.a_n1962_4406.t111               1.22739e-05
x1.a_n935_8875.t8                      1.41094
x1.vn.t7                           1.34826e-05
x1.a_3329_8823.t46                 1.25988e-05
x1.vss.t3                          1.38368e-05
x1.vdd.t81                                 1.7
x1.vdd.t80                                 1.7
x1.vss.t287                        1.21234e-05
x1.en.t24                                  1.7
x1.a_n1962_4406.t110               1.22726e-05
x1.vss.t286                        1.21198e-05
x1.en.t25                                  1.7
x1.a_n1962_4406.t109               1.22725e-05
x1.vdd.t106                                1.7
x1.a_n935_8875.t35                     1.41094
x1.a_n735_8972.t25                     1.41174
x1.vdd.t11                                 1.7
x1.a_n1962_4406.t40                1.22762e-05
x1.ibias.t40                          0.622948
x1.vout.t58                         1.3442e-05
x1.vss.t163                         1.2206e-05
x1.vss.t161                        1.22058e-05
x1.vss.t162                        1.43219e-05
x1.vdd.t25                                 1.7
x1.a_n735_8972.t35                     1.41174
x1.vout.t71                        1.34995e-05
x1.vss.t160                         1.2112e-05
x1.vss.t158                         1.2112e-05
x1.vss.t159                         1.2112e-05
x1.a_n1962_4406.t108               1.22738e-05
x1.en.t26                                  1.7
x1.vss.t285                        1.21234e-05
x1.a_3329_8823.t27                 1.25933e-05
x1.ibias.t41                          0.622948
x1.a_3868_4185.t28                 1.21629e-05
x1.a_n935_8875.t31                     1.41094
x1.a_n935_8875.t30                     1.41094
x1.vdd.t37                                 1.7
x1.a_n1962_4406.t39                1.22762e-05
x1.ibias.t42                          0.622948
x1.vout.t13                        1.34418e-05
x1.vout.t16                         1.3442e-05
x1.ibias.t43                          0.622948
x1.a_n1962_4406.t38                1.22746e-05
x1.a_n1962_4406.t37                1.22746e-05
x1.ibias.t44                          0.622948
x1.vout.t22                        1.34421e-05
x1.a_n1962_4406.t107               1.22737e-05
x1.en.t27                                  1.7
x1.vss.t284                        1.21198e-05
x1.a_3329_8823.t0                  1.25932e-05
x1.ibias.t45                          0.622948
x1.a_3868_4185.t27                 1.21629e-05
x1.a_n735_8972.t18                     1.41174
x1.vp.t5                                     0
x1.a_3329_8823.t47                 1.25987e-05
x1.vss.t157                        1.22062e-05
x1.vss.t155                        1.22058e-05
x1.a_n735_8972.t4                      1.41174
x1.vss.t156                        1.41528e-05
x1.vout.t73                        1.35013e-05
x1.a_n735_8972.t36                     1.41174
x1.vdd.t27                                 1.7
x1.a_n1962_4406.t36                1.22746e-05
x1.ibias.t46                          0.622948
x1.vout.t39                        1.34419e-05
x1.a_n1962_4406.t106               1.22739e-05
x1.en.t28                                  1.7
x1.vss.t280                        1.21252e-05
x1.vss.t281                        1.21234e-05
x1.en.t29                                  1.7
x1.a_n1962_4406.t105               1.22738e-05
x1.vss.t283                        1.21198e-05
x1.en.t30                                  1.7
x1.a_n1962_4406.t104               1.22738e-05
x1.vss.t282                        0.000102967
x1.en.t31                                  1.7
x1.a_8862_4192.t22                  0.00140512
x1.a_3329_8823.t53                 1.25979e-05
x1.vss.t153                        1.22055e-05
x1.vss.t154                        1.22055e-05
x1.vss.t61                         1.31539e-05
x1.vout.t14                        1.34423e-05
x1.ibias.t47                          0.622948
x1.a_n1962_4406.t35                1.22745e-05
x1.vss.t152                         1.2112e-05
x1.vss.t151                         1.2112e-05
x1.a_n1962_4406.t74                 1.2273e-05
x1.vout.t17                        1.34427e-05
x1.ibias.t48                          0.622948
x1.a_n1962_4406.t34                1.22744e-05
x1.vss.t150                         1.2112e-05
x1.vss.t149                         1.2112e-05
x1.vss.t279                        1.21252e-05
x1.en.t32                                  1.7
x1.a_n1962_4406.t103               1.22739e-05
x1.a_n1962_4406.t33                1.22775e-05
x1.ibias.t49                          0.622948
x1.vout.t50                        1.34431e-05
x1.a_3868_4185.t73                 1.21626e-05
x1.en.t33                                  1.7
x1.vss.t278                        1.20953e-05
x1.vss.t274                        1.20953e-05
x1.en.t34                                  1.7
x1.a_3868_4185.t72                 1.21622e-05
x1.vss.t277                        1.20952e-05
x1.en.t35                                  1.7
x1.a_3868_4185.t71                 1.21622e-05
x1.a_n935_8875.t29                     1.41094
x1.a_n935_8875.t28                     1.41094
x1.vdd.t29                                 1.7
x1.vdd.t79                                 1.7
x1.vdd.t78                                 1.7
x1.a_n1962_4406.t32                1.22775e-05
x1.ibias.t50                          0.622948
x1.vout.t29                        1.34431e-05
x1.a_8862_4192.t21                  0.00140506
x1.en.t36                                  1.7
x1.vss.t276                        7.76508e-05
x1.a_3868_4185.t70                 1.21626e-05
x1.en.t37                                  1.7
x1.vss.t275                        1.20952e-05
x1.vss.t148                        1.20882e-05
x1.vss.t147                        1.20882e-05
x1.a_3868_4185.t51                 1.21635e-05
x1.vdd.t22                                 1.7
x1.a_n935_8875.t26                     1.41094
x1.a_n935_8875.t27                     1.41094
x1.vdd.t0                                  1.7
x1.vout.t23                        1.34431e-05
x1.ibias.t51                          0.622948
x1.a_n1962_4406.t31                1.22775e-05
x1.vss.t273                        1.20953e-05
x1.en.t38                                  1.7
x1.a_3868_4185.t69                 1.21626e-05
x1.a_3868_4185.t50                 1.21624e-05
x1.vss.t145                        1.20882e-05
x1.vss.t146                        1.20882e-05
x1.vss.t144                        5.79355e-05
x1.vss.t142                        5.80797e-05
x1.vss.t143                        7.28979e-05
x1.a_3868_4185.t49                 1.21624e-05
x1.vss.t140                        1.20882e-05
x1.vss.t141                        1.20882e-05
x1.vss.t272                        1.20952e-05
x1.en.t39                                  1.7
x1.a_3868_4185.t68                 1.21626e-05
x1.vss.t271                        1.21269e-05
x1.en.t40                                  1.7
x1.a_n1962_4406.t102               1.22739e-05
x1.a_3868_4185.t26                 1.21636e-05
x1.ibias.t52                          0.622948
x1.a_3329_8823.t14                 1.25932e-05
x1.a_3868_4185.t25                 1.21636e-05
x1.ibias.t53                          0.622948
x1.a_3329_8823.t24                 1.25932e-05
x1.a_3329_8823.t67                 1.25986e-05
x1.vn.t8                           1.34826e-05
x1.a_n935_8875.t7                      1.41094
x1.vss.t217                        1.38311e-05
x1.a_3868_4185.t24                 1.21629e-05
x1.ibias.t54                          0.622948
x1.a_3329_8823.t34                 1.25933e-05
x1.vdd.t77                                 1.7
x1.vdd.t76                                 1.7
x1.a_n1962_4406.t73                1.22759e-05
x1.vss.t138                         1.2112e-05
x1.vss.t139                         1.2112e-05
x1.a_n1962_4406.t72                1.22759e-05
x1.vss.t136                         1.2112e-05
x1.vss.t137                         1.2112e-05
x1.ibias.t3                           0.622829
x1.ibias.t2                           0.622941
x1.a_8862_4192.t2                   0.00163645
x1.vss.t216                        5.60885e-05
x1.vss.t270                        7.57755e-05
x1.en.t41                                  1.7
x1.a_8862_4192.t20                   0.0014055
x1.a_3868_4185.t23                 1.21629e-05
x1.ibias.t55                          0.622948
x1.a_3329_8823.t5                  1.25932e-05
x1.a_3329_8823.t9                  1.25932e-05
x1.ibias.t56                          0.622948
x1.a_3868_4185.t22                 1.21629e-05
x1.a_n1962_4406.t101               1.22738e-05
x1.en.t42                                  1.7
x1.vss.t269                        1.21234e-05
x1.a_n1962_4406.t100               1.22738e-05
x1.en.t43                                  1.7
x1.vss.t268                        1.21197e-05
x1.a_3329_8823.t13                 1.25932e-05
x1.ibias.t57                          0.622948
x1.a_3868_4185.t21                 1.21629e-05
x1.vdd.t75                                 1.7
x1.vdd.t73                                 1.7
x1.vdd.t74                                 1.7
x1.vdd.t40                                 1.7
x1.vss.t267                        9.25284e-05
x1.en.t44                                  1.7
x1.a_8862_4192.t19                  0.00140538
x1.a_8862_4192.t18                  0.00140558
x1.en.t45                                  1.7
x1.vss.t266                        0.000103863
x1.vdd.t101                                1.7
x1.a_n735_8972.t37                     1.41174
x1.vout.t83                        1.35008e-05
x1.a_n1962_4406.t30                1.22747e-05
x1.ibias.t58                          0.622948
x1.vout.t55                        1.34419e-05
x1.a_8862_4192.t1                   0.00163645
x1.ibias.t0                           0.622938
x1.ibias.t1                           0.622735
x1.a_3329_8823.t1                  1.25931e-05
x1.ibias.t59                          0.622948
x1.a_3868_4185.t20                 1.21637e-05
x1.vdd.t109                                1.7
x1.a_n935_8875.t36                     1.41094
x1.a_n735_8972.t26                     1.41174
x1.a_8862_4192.t17                  0.00140533
x1.en.t46                                  1.7
x1.vss.t265                        7.29799e-05
x1.vss.t135                        5.55039e-05
x1.vss.t133                        5.54017e-05
x1.vss.t134                        7.00038e-05
x1.vout.t81                           1.35e-05
x1.a_n735_8972.t38                     1.41174
x1.vdd.t99                                 1.7
x1.vss.t128                        1.20882e-05
x1.vss.t127                        1.20882e-05
x1.a_3868_4185.t48                 1.21623e-05
x1.a_3868_4185.t47                 1.21635e-05
x1.vss.t131                        1.20882e-05
x1.vss.t132                        1.20882e-05
x1.a_n935_8875.t25                     1.41094
x1.a_n935_8875.t24                     1.41094
x1.vdd.t31                                 1.7
x1.a_3868_4185.t19                 1.21637e-05
x1.ibias.t60                          0.622948
x1.a_3329_8823.t25                 1.25931e-05
x1.a_3329_8823.t52                 1.25978e-05
x1.vss.t125                        1.22055e-05
x1.vss.t126                        1.22055e-05
x1.vss.t248                        7.29473e-05
x1.en.t47                                  1.7
x1.a_8862_4192.t16                  0.00140486
x1.a_3329_8823.t6                  1.25931e-05
x1.ibias.t61                          0.622948
x1.a_3868_4185.t18                 1.21641e-05
x1.vdd.t72                                 1.7
x1.vdd.t70                                 1.7
x1.a_3868_4185.t67                 1.21626e-05
x1.en.t48                                  1.7
x1.vss.t264                        1.20951e-05
x1.vout.t63                        1.35011e-05
x1.a_n735_8972.t39                     1.41174
x1.vdd.t14                                 1.7
x1.vout.t68                        1.34993e-05
x1.a_n735_8972.t40                     1.41174
x1.vdd.t20                                 1.7
x1.vdd.t2                                  1.7
x1.a_n1962_4406.t99                1.22738e-05
x1.en.t49                                  1.7
x1.vss.t263                        1.21216e-05
x1.a_8862_4192.t15                  0.00140491
x1.en.t50                                  1.7
x1.vss.t262                        9.15968e-05
x1.vss.t124                        1.22057e-05
x1.vss.t123                        1.22057e-05
x1.a_3329_8823.t51                  1.2598e-05
x1.a_n1962_4406.t98                1.22737e-05
x1.en.t51                                  1.7
x1.vss.t261                        1.21178e-05
x1.vdd.t69                                 1.7
x1.vdd.t67                                 1.7
x1.vdd.t68                                 1.7
x1.a_3329_8823.t58                 1.25982e-05
x1.vp.t6                                     0
x1.a_n735_8972.t17                     1.41174
x1.vss.t122                         1.2112e-05
x1.vss.t121                         1.2112e-05
x1.a_n1962_4406.t71                1.22759e-05
x1.a_3329_8823.t79                 1.25982e-05
x1.vn.t9                           1.34826e-05
x1.a_n935_8875.t6                      1.41094
x1.vout.t40                        1.34422e-05
x1.ibias.t62                          0.622948
x1.a_n1962_4406.t29                1.22762e-05
x1.a_n935_8875.t5                      1.41094
x1.vn.t10                          1.34826e-05
x1.a_3329_8823.t70                 1.25986e-05
x1.vdd.t66                                 1.7
x1.vdd.t64                                 1.7
x1.vdd.t65                                 1.7
x1.a_n735_8972.t5                      1.41174
x1.a_n935_8875.t37                     1.41094
x1.vdd.t28                                 1.7
x1.vout.t66                        1.35003e-05
x1.a_n735_8972.t41                     1.41174
x1.vdd.t18                                 1.7
x1.vss.t120                         1.2112e-05
x1.vss.t119                         1.2112e-05
x1.a_n1962_4406.t97                1.22727e-05
x1.en.t52                                  1.7
x1.vss.t260                        1.21286e-05
x1.a_n1962_4406.t28                1.22745e-05
x1.ibias.t63                          0.622948
x1.vout.t15                        1.34422e-05
x1.vss.t118                         1.2112e-05
x1.vss.t117                         1.2112e-05
x1.vdd.t4                                  1.7
x1.a_n935_8875.t38                     1.41094
x1.a_n735_8972.t0                      1.41174
x1.a_n735_8972.t16                     1.41174
x1.vp.t7                                     0
x1.a_3329_8823.t74                 1.25988e-05
x1.a_3329_8823.t75                 1.25986e-05
x1.vp.t8                                     0
x1.a_n735_8972.t15                     1.41174
x1.a_n1962_4406.t96                 1.2274e-05
x1.en.t53                                  1.7
x1.vss.t259                        1.21303e-05
x1.vdd.t63                                 1.7
x1.vdd.t61                                 1.7
x1.vdd.t62                                 1.7
x1.vss.t116                         1.2112e-05
x1.vss.t115                         1.2112e-05
x1.a_n1962_4406.t70                1.22759e-05
x1.a_n1962_4406.t27                1.22746e-05
x1.ibias.t64                          0.622948
x1.vout.t18                        1.34419e-05
x1.vss.t258                        1.21286e-05
x1.en.t54                                  1.7
x1.a_n1962_4406.t95                1.22739e-05
x1.vout.t10                        1.34421e-05
x1.ibias.t65                          0.622948
x1.a_n1962_4406.t26                1.22746e-05
x1.a_n735_8972.t14                     1.41174
x1.vp.t9                                     0
x1.a_3329_8823.t78                  1.2598e-05
x1.a_3329_8823.t59                 1.25988e-05
x1.vp.t10                                    0
x1.a_n735_8972.t13                     1.41174
x1.a_n735_8972.t12                     1.41174
x1.vp.t11                                    0
x1.a_3329_8823.t69                  1.2598e-05
x1.a_n1962_4406.t69                 1.2273e-05
x1.vss.t113                         1.2112e-05
x1.vss.t114                         1.2112e-05
x1.vss.t257                        1.21252e-05
x1.en.t55                                  1.7
x1.a_n1962_4406.t94                1.22738e-05
x1.a_n1962_4406.t68                1.22759e-05
x1.vss.t111                         1.2112e-05
x1.vss.t112                         1.2112e-05
x1.vout.t51                        1.34419e-05
x1.ibias.t66                          0.622948
x1.a_n1962_4406.t25                1.22747e-05
x1.vout.t30                        1.34431e-05
x1.ibias.t67                          0.622948
x1.a_n1962_4406.t24                1.22775e-05
x1.vout.t24                        1.34431e-05
x1.ibias.t68                          0.622948
x1.a_n1962_4406.t23                1.22762e-05
x1.vss.t256                        0.000104342
x1.en.t56                                  1.7
x1.a_8862_4192.t14                  0.00140651
x1.a_8862_4192.t13                  0.00140644
x1.en.t57                                  1.7
x1.vss.t255                        7.65524e-05
x1.vdd.t21                                 1.7
x1.a_n935_8875.t22                     1.41094
x1.a_n935_8875.t23                     1.41094
x1.a_3329_8823.t50                 1.25979e-05
x1.vss.t109                        1.22056e-05
x1.vss.t110                        1.22056e-05
x1.vout.t56                        1.34418e-05
x1.ibias.t69                          0.622948
x1.a_n1962_4406.t22                1.22775e-05
x1.a_n1962_4406.t21                1.22762e-05
x1.ibias.t70                          0.622948
x1.vout.t20                        1.34422e-05
x1.a_3329_8823.t16                 1.25933e-05
x1.ibias.t71                          0.622948
x1.a_3868_4185.t17                 1.21641e-05
x1.vss.t108                        1.20882e-05
x1.vss.t107                        1.20882e-05
x1.a_3868_4185.t46                 1.21635e-05
x1.vout.t79                        1.35005e-05
x1.a_n735_8972.t42                     1.41174
x1.vdd.t38                                 1.7
x1.vout.t34                        1.34419e-05
x1.ibias.t72                          0.622948
x1.a_n1962_4406.t20                1.22746e-05
x1.a_n1962_4406.t19                1.22762e-05
x1.ibias.t73                          0.622948
x1.vout.t11                        1.34426e-05
x1.vss.t106                        1.20882e-05
x1.vss.t105                        1.20882e-05
x1.a_3868_4185.t45                 1.21635e-05
x1.vss.t104                        1.22055e-05
x1.vss.t101                        1.22055e-05
x1.vss.t103                        1.22061e-05
x1.vss.t102                         1.2999e-05
x1.a_n1962_4406.t18                1.22745e-05
x1.ibias.t74                          0.622948
x1.vout.t31                        1.34421e-05
x1.vss.t100                        7.06553e-05
x1.vss.t99                         6.33191e-05
x1.vss.t254                        7.59753e-05
x1.en.t58                                  1.7
x1.a_8862_4192.t12                  0.00140503
x1.vout.t8                         1.34422e-05
x1.ibias.t75                          0.622948
x1.a_n1962_4406.t17                1.22745e-05
x1.a_n1962_4406.t16                1.22746e-05
x1.ibias.t76                          0.622948
x1.vout.t32                        1.34424e-05
x1.a_n1962_4406.t15                1.22746e-05
x1.ibias.t77                          0.622948
x1.vout.t4                         1.34429e-05
x1.a_3868_4185.t16                 1.21641e-05
x1.ibias.t78                          0.622948
x1.a_3329_8823.t21                 1.25933e-05
x1.vss.t98                          6.2297e-05
x1.vss.t97                         6.22964e-05
x1.ibias.t9                           0.622851
x1.a_n1962_4406.t93                1.22738e-05
x1.en.t59                                  1.7
x1.vss.t253                        1.21216e-05
x1.vout.t19                        1.34426e-05
x1.ibias.t79                          0.622948
x1.a_n1962_4406.t14                1.22745e-05
x1.a_n1962_4406.t92                1.22738e-05
x1.en.t60                                  1.7
x1.vss.t252                        1.21178e-05
x1.a_3868_4185.t15                 1.21629e-05
x1.ibias.t80                          0.622948
x1.a_3329_8823.t36                 1.25933e-05
x1.vss.t251                        9.30109e-05
x1.en.t61                                  1.7
x1.a_8862_4192.t11                  0.00140632
x1.vdd.t60                                 1.7
x1.vdd.t58                                 1.7
x1.vdd.t59                                 1.7
x1.a_n735_8972.t11                     1.41174
x1.vp.t12                                    0
x1.a_3329_8823.t40                 1.25985e-05
x1.vss.t250                        1.21216e-05
x1.en.t62                                  1.7
x1.a_n1962_4406.t91                1.22739e-05
x1.vss.t96                          1.2112e-05
x1.vss.t95                          1.2112e-05
x1.a_8862_4192.t10                  0.00140511
x1.en.t63                                  1.7
x1.vss.t249                        0.000102967
x1.a_3868_4185.t14                 1.21629e-05
x1.ibias.t81                          0.622948
x1.a_3329_8823.t32                 1.25932e-05
x1.vss.t247                        1.21178e-05
x1.en.t64                                  1.7
x1.a_n1962_4406.t90                1.22739e-05
x1.a_3329_8823.t23                 1.25933e-05
x1.ibias.t82                          0.622948
x1.a_3868_4185.t13                 1.21641e-05
x1.a_8862_4192.t9                   0.00140627
x1.en.t65                                  1.7
x1.vss.t246                        7.36658e-05
x1.vss.t245                        1.20951e-05
x1.en.t66                                  1.7
x1.a_3868_4185.t66                 1.21622e-05
x1.a_n735_8972.t1                      1.41174
x1.a_n935_8875.t39                     1.41094
x1.vdd.t9                                  1.7
x1.vdd.t35                                 1.7
x1.a_n735_8972.t43                     1.41174
x1.vout.t76                        1.35006e-05
x1.a_n1962_4406.t13                1.22746e-05
x1.ibias.t83                          0.622948
x1.vout.t43                         1.3442e-05
x1.a_3329_8823.t45                 1.25985e-05
x1.vn.t11                          1.34826e-05
x1.a_n935_8875.t4                      1.41094
x1.vout.t88                        1.34997e-05
x1.a_n735_8972.t44                     1.41174
x1.vdd.t108                                1.7
x1.vss.t244                        1.21234e-05
x1.en.t67                                  1.7
x1.a_n1962_4406.t89                1.22738e-05
x1.a_3868_4185.t12                 1.21641e-05
x1.ibias.t84                          0.622948
x1.a_3329_8823.t10                 1.25934e-05
x1.vss.t94                         1.20882e-05
x1.vss.t93                         1.20882e-05
x1.a_3868_4185.t44                 1.21635e-05
x1.a_3868_4185.t43                 1.21624e-05
x1.vss.t91                         1.20882e-05
x1.vss.t92                         1.20882e-05
x1.a_3329_8823.t7                  1.25932e-05
x1.ibias.t85                          0.622948
x1.a_3868_4185.t11                 1.21629e-05
x1.vdd.t10                                 1.7
x1.a_n935_8875.t40                     1.41094
x1.a_n735_8972.t2                      1.41174
x1.vss.t90                         1.22062e-05
x1.vss.t88                         1.22057e-05
x1.a_n935_8875.t17                     1.41094
x1.a_n935_8875.t3                      1.41094
x1.vn.t12                          1.34826e-05
x1.a_3329_8823.t57                  1.2598e-05
x1.vdd.t57                                 1.7
x1.vdd.t55                                 1.7
x1.vdd.t56                                 1.7
x1.vss.t243                        1.21197e-05
x1.en.t68                                  1.7
x1.a_n1962_4406.t88                1.22737e-05
x1.a_3868_4185.t10                 1.21637e-05
x1.ibias.t86                          0.622948
x1.a_3329_8823.t3                  1.25931e-05
x1.vss.t87                         6.78261e-05
x1.vss.t86                         6.04778e-05
x1.vss.t242                         7.3528e-05
x1.en.t69                                  1.7
x1.a_8862_4192.t8                   0.00140534
x1.a_3329_8823.t29                 1.25931e-05
x1.ibias.t87                          0.622948
x1.a_3868_4185.t9                  1.21629e-05
x1.vout.t74                        1.35006e-05
x1.a_n735_8972.t45                     1.41174
x1.vdd.t32                                 1.7
x1.a_3868_4185.t65                 1.21626e-05
x1.en.t70                                  1.7
x1.vss.t241                        1.20952e-05
x1.vdd.t102                                1.7
x1.a_n735_8972.t46                     1.41174
x1.vout.t84                        1.34993e-05
x1.a_8862_4192.t7                   0.00140539
x1.en.t71                                  1.7
x1.vss.t240                        9.25284e-05
x1.vss.t239                        1.20952e-05
x1.en.t72                                  1.7
x1.a_3868_4185.t64                 1.21626e-05
x1.vdd.t12                                 1.7
x1.a_n935_8875.t20                     1.41094
x1.a_n935_8875.t21                     1.41094
x1.a_n935_8875.t2                      1.41094
x1.vn.t13                          1.34826e-05
x1.a_3329_8823.t68                 1.25988e-05
x1.vdd.t54                                 1.7
x1.vdd.t53                                 1.7
x1.a_n935_8875.t16                     1.41094
x1.vss.t83                         1.22056e-05
x1.vss.t85                         1.22063e-05
x1.vss.t82                          1.2112e-05
x1.vss.t81                          1.2112e-05
x1.vout.t85                        1.34995e-05
x1.a_n735_8972.t47                     1.41174
x1.vdd.t104                                1.7
x1.vss.t80                          1.2112e-05
x1.vss.t79                          1.2112e-05
x1.a_n1962_4406.t67                1.22731e-05
x1.a_3868_4185.t8                  1.21629e-05
x1.ibias.t88                          0.622948
x1.a_3329_8823.t26                 1.25932e-05
x1.vss.t78                          1.2112e-05
x1.vss.t76                          1.2112e-05
x1.vdd.t107                                1.7
x1.a_n735_8972.t48                     1.41174
x1.vout.t87                        1.35003e-05
x1.a_n1962_4406.t66                1.22759e-05
x1.vss.t74                          1.2112e-05
x1.vss.t75                          1.2112e-05
x1.vss.t73                         1.22056e-05
x1.vss.t71                         1.22056e-05
x1.vss.t72                         1.22062e-05
x1.vdd.t24                                 1.7
x1.a_n735_8972.t49                     1.41174
x1.vout.t70                        1.35005e-05
x1.vss.t238                        1.21303e-05
x1.en.t73                                  1.7
x1.a_n1962_4406.t87                1.22739e-05
x1.vss.t70                          1.2112e-05
x1.vss.t68                          1.2112e-05
x1.vss.t69                          1.2112e-05
x1.vout.t72                        1.34988e-05
x1.a_n735_8972.t50                     1.41174
x1.vdd.t26                                 1.7
x1.vout.t41                        1.34419e-05
x1.ibias.t89                          0.622948
x1.a_n1962_4406.t12                1.22762e-05
x1.a_n1962_4406.t65                1.22759e-05
x1.vss.t66                          1.2112e-05
x1.vss.t67                          1.2112e-05
x1.a_n1962_4406.t86                1.22739e-05
x1.en.t74                                  1.7
x1.vss.t237                         1.2127e-05
x1.vss.t65                         1.22057e-05
x1.vss.t63                         1.22057e-05
x1.a_3329_8823.t49                 1.25981e-05
x1.a_3329_8823.t48                 1.25979e-05
x1.vss.t60                         1.22056e-05
x1.vss.t62                         1.22056e-05
x1.a_n1962_4406.t11                1.22746e-05
x1.ibias.t90                          0.622948
x1.vout.t47                         1.3442e-05
x1.vss.t59                          1.2112e-05
x1.vss.t58                          1.2112e-05
x1.a_n1962_4406.t64                1.22759e-05
x1.vdd.t1                                  1.7
x1.a_n935_8875.t18                     1.41094
x1.a_n935_8875.t19                     1.41094
x1.a_n735_8972.t10                     1.41174
x1.vp.t13                                    0
x1.a_3329_8823.t41                 1.25987e-05
x1.a_n935_8875.t1                      1.41094
x1.vn.t14                          1.34826e-05
x1.a_3329_8823.t72                 1.25984e-05
x1.vss.t312                        1.36691e-05
x1.vdd.t52                                 1.7
x1.vdd.t50                                 1.7
x1.vdd.t51                                 1.7
x1.vout.t44                         1.3442e-05
x1.ibias.t91                          0.622948
x1.a_n1962_4406.t10                1.22746e-05
x1.vss.t57                          1.2112e-05
x1.vss.t55                          1.2112e-05
x1.a_n1962_4406.t63                1.22759e-05
x1.a_3329_8823.t30                 1.25933e-05
x1.ibias.t92                          0.622948
x1.a_3868_4185.t7                  1.21637e-05
x1.vdd.t49                                 1.7
x1.vdd.t46                                 1.7
x1.vdd.t48                                 1.7
x1.vout.t82                        1.35005e-05
x1.a_n735_8972.t51                     1.41174
x1.vdd.t100                                1.7
x1.vout.t36                        1.34425e-05
x1.ibias.t93                          0.622948
x1.a_n1962_4406.t9                 1.22762e-05
x1.vout.t37                        1.34429e-05
x1.ibias.t94                          0.622948
x1.a_n1962_4406.t8                 1.22762e-05
x1.a_3329_8823.t22                 1.25932e-05
x1.ibias.t95                          0.622948
x1.a_3868_4185.t6                  1.21637e-05
x1.a_3329_8823.t60                 1.25984e-05
x1.vp.t14                                    0
x1.a_n735_8972.t9                      1.41174
x1.vss.t213                        1.34991e-05
x1.a_n1962_4406.t85                1.22726e-05
x1.en.t75                                  1.7
x1.vss.t236                        1.21251e-05
x1.a_9909_7861.t1                      1.41174
x1.vout.t78                        1.34637e-05
x1.a_3868_4185.t42                 1.21636e-05
x1.vss.t53                         1.20882e-05
x1.vss.t54                         1.20882e-05
x1.vout.t80                        1.35008e-05
x1.a_n735_8972.t52                     1.41174
x1.vdd.t98                                 1.7
x1.a_n1962_4406.t7                 1.22744e-05
x1.ibias.t96                          0.622948
x1.vout.t12                        1.34425e-05
x1.a_n1962_4406.t6                 1.22744e-05
x1.ibias.t97                          0.622948
x1.vout.t5                         1.34429e-05
x1.a_3868_4185.t63                 1.21621e-05
x1.en.t76                                  1.7
x1.vss.t235                        1.20952e-05
x1.vss.t234                        1.20953e-05
x1.en.t77                                  1.7
x1.a_3868_4185.t62                 1.21626e-05
x1.vss.t233                        1.20952e-05
x1.en.t78                                  1.7
x1.a_3868_4185.t61                 1.21626e-05
x1.a_3868_4185.t41                 1.21636e-05
x1.vss.t50                         1.20882e-05
x1.vss.t52                         1.20882e-05
x1.a_n735_8972.t6                      1.41174
x1.a_n935_8875.t41                     1.41094
x1.vdd.t34                                 1.7
x1.a_n735_8972.t3                      1.41174
x1.vss.t47                         1.22055e-05
x1.vss.t49                         1.22062e-05
x1.vss.t48                         1.32974e-05
x1.a_n1962_4406.t84                1.22739e-05
x1.en.t79                                  1.7
x1.vss.t223                        1.21303e-05
x1.vss.t232                        1.21251e-05
x1.en.t80                                  1.7
x1.a_n1962_4406.t83                1.22738e-05
x1.vout.t1                         1.34424e-05
x1.ibias.t98                          0.622948
x1.a_n1962_4406.t5                 1.22746e-05
x1.vss.t46                          1.2112e-05
x1.vss.t44                          1.2112e-05
x1.vss.t43                         7.08537e-05
x1.vss.t42                         6.35064e-05
x1.a_3868_4185.t60                 1.21621e-05
x1.en.t81                                  1.7
x1.vss.t231                        1.20952e-05
x1.a_3329_8823.t76                 1.25987e-05
x1.vp.t15                                    0
x1.a_n735_8972.t8                      1.41174
x1.a_n1962_4406.t62                 1.2273e-05
x1.vss.t40                          1.2112e-05
x1.vss.t41                          1.2112e-05
x1.vss.t228                        1.21216e-05
x1.en.t82                                  1.7
x1.a_n1962_4406.t82                1.22737e-05
x1.vout.t7                         1.34429e-05
x1.ibias.t99                          0.622948
x1.a_n1962_4406.t4                 1.22746e-05
x1.a_n1962_4406.t61                 1.2273e-05
x1.vss.t37                          1.2112e-05
x1.vss.t39                          1.2112e-05
x1.vss.t230                        1.21178e-05
x1.en.t83                                  1.7
x1.a_n1962_4406.t81                1.22737e-05
x1.vss.t229                        1.20952e-05
x1.en.t84                                  1.7
x1.a_3868_4185.t59                 1.21626e-05
x1.vss.t227                        7.54982e-05
x1.en.t85                                  1.7
x1.a_8862_4192.t6                   0.00140642
x1.vss.t226                        1.20952e-05
x1.en.t86                                  1.7
x1.a_3868_4185.t58                 1.21626e-05
x1.vss.t36                          1.2112e-05
x1.vss.t35                          1.2112e-05
x1.a_3868_4185.t5                  1.21629e-05
x1.ibias.t100                         0.622948
x1.a_3329_8823.t15                 1.25933e-05
x1.a_3868_4185.t4                  1.21629e-05
x1.ibias.t101                         0.622948
x1.a_3329_8823.t37                 1.25932e-05
x1.a_n1962_4406.t3                 1.22775e-05
x1.ibias.t102                         0.622948
x1.vout.t48                        1.34418e-05
x1.a_8862_4192.t5                    0.0014065
x1.en.t87                                  1.7
x1.vss.t225                        0.000104342
x1.vout.t60                        1.35001e-05
x1.a_n735_8972.t53                     1.41174
x1.vdd.t3                                  1.7
x1.vdd.t6                                  1.7
x1.a_n735_8972.t54                     1.41174
x1.vout.t61                        1.34997e-05
x1.a_n1962_4406.t80                1.22739e-05
x1.en.t88                                  1.7
x1.vss.t224                        1.21286e-05
x1.a_3329_8823.t33                 1.25933e-05
x1.ibias.t103                         0.622948
x1.a_3868_4185.t3                  1.21629e-05
x1.ibias.t8                           0.622846
x1.vss.t33                         5.67399e-05
x1.vss.t34                         5.67405e-05
x1.vss.t32                         5.86475e-05
x1.vss.t29                         5.86989e-05
x1.vss.t31                         7.34087e-05
x1.vout.t33                        1.34421e-05
x1.ibias.t104                         0.622948
x1.a_n1962_4406.t2                 1.22745e-05
x1.a_3329_8823.t20                 1.25932e-05
x1.ibias.t105                         0.622948
x1.a_3868_4185.t2                  1.21629e-05
x1.vss.t28                         1.20882e-05
x1.vss.t26                         1.20882e-05
x1.a_3868_4185.t40                 1.21635e-05
x1.vdd.t45                                 1.7
x1.vdd.t43                                 1.7
x1.vdd.t42                                 1.7
x1.vdd.t39                                 1.7
x1.vdd.t41                                 1.7
x1.a_3868_4185.t1                  1.21641e-05
x1.ibias.t106                         0.622948
x1.a_3329_8823.t31                 1.25933e-05
x1.a_3868_4185.t57                 1.21626e-05
x1.en.t89                                  1.7
x1.vss.t222                        1.20953e-05
x1.a_3329_8823.t19                 1.25931e-05
x1.ibias.t107                         0.622948
x1.a_3868_4185.t0                  1.21641e-05
x1.a_3868_4185.t56                 1.21626e-05
x1.en.t90                                  1.7
x1.vss.t221                        1.20952e-05
x1.a_n1962_4406.t1                 1.22745e-05
x1.ibias.t108                         0.622948
x1.vout.t27                        1.34424e-05
x1.vss.t25                          1.2112e-05
x1.vss.t24                          1.2112e-05
x1.a_n1962_4406.t60                1.22759e-05
x1.vss.t23                         6.84047e-05
x1.vss.t21                          6.1057e-05
x1.vss.t220                        7.40069e-05
x1.en.t91                                  1.7
x1.a_8862_4192.t4                   0.00140627
x1.a_n935_8875.t0                      1.41094
x1.vn.t15                          1.34826e-05
x1.a_3329_8823.t44                 1.25987e-05
x1.a_n1962_4406.t0                 1.22762e-05
x1.ibias.t109                         0.622948
x1.vout.t59                        1.34428e-05
x1.en.n0                                   1.7
x1.en.n3                                   1.7
x1.en.n7                                   1.7
x1.en.n11                                  1.7
x1.en.n15                                  1.7
x1.en.n38                                  1.7
x1.en.n41                                  1.7
x1.en.n44                                  1.7
x1.en.n50                                  1.7
x1.en.n56                                  1.7
x1.en.n62                                  1.7
x1.en.n68                                  1.7
x1.en.n74                                  1.7
x1.en.n80                                  1.7
x1.en.n19                                  1.7
x1.en.n22                                  1.7
x1.en.n26                                  1.7
x1.en.n30                                  1.7
x1.en.n34                                  1.7
x1.en.n87                                  1.7
x1.en.n89                                  1.7
x1.en.n88                                  1.7
x1.en.n2                                   1.7
x1.en.n1                                   1.7
x1.en.n5                                   1.7
x1.en.n4                                   1.7
x1.en.n9                                   1.7
x1.en.n8                                   1.7
x1.en.n13                                  1.7
x1.en.n12                                  1.7
x1.en.n17                                  1.7
x1.en.n16                                  1.7
x1.en.n39                                  1.7
x1.en.n40                                  1.7
x1.en.n42                                  1.7
x1.en.n43                                  1.7
x1.en.n45                                  1.7
x1.en.n46                                  1.7
x1.en.n47                                  1.7
x1.en.n48                                  1.7
x1.en.n51                                  1.7
x1.en.n52                                  1.7
x1.en.n53                                  1.7
x1.en.n54                                  1.7
x1.en.n57                                  1.7
x1.en.n58                                  1.7
x1.en.n59                                  1.7
x1.en.n60                                  1.7
x1.en.n63                                  1.7
x1.en.n64                                  1.7
x1.en.n65                                  1.7
x1.en.n66                                  1.7
x1.en.n69                                  1.7
x1.en.n70                                  1.7
x1.en.n71                                  1.7
x1.en.n72                                  1.7
x1.en.n75                                  1.7
x1.en.n76                                  1.7
x1.en.n77                                  1.7
x1.en.n78                                  1.7
x1.en.n81                                  1.7
x1.en.n82                                  1.7
x1.en.n20                                  1.7
x1.en.n21                                  1.7
x1.en.n23                                  1.7
x1.en.n24                                  1.7
x1.en.n27                                  1.7
x1.en.n28                                  1.7
x1.en.n31                                  1.7
x1.en.n32                                  1.7
x1.en.n35                                  1.7
x1.en.n36                                  1.7
x1.en.n84                                  1.7
x1.en.n83                                  1.7
x1.en.n90                                  1.7
x1.en.n49                                  1.7
x1.en.n25                                  1.7
x1.en.n29                                  1.7
x1.en.n37                                  1.7
x1.en.n6                                   1.7
x1.en.n61                                  1.7
x1.en.n73                                  1.7
x1.en.n10                                  1.7
x1.en.n14                                  1.7
x1.en.n18                                  1.7
x1.en.n33                                  1.7
x1.en.n55                                  1.7
x1.en.n67                                  1.7
x1.en.n79                                  1.7
x1.en.n86                                  1.7
x1.en.n85                                  1.7
x1.vss.n1977                       1.42933e-05
x1.vss.n1888                       5.86313e-05
x1.vss.n2092                       1.29081e-05
x1.vss.n1496                        1.2225e-05
x1.vss.n2383                       5.84264e-05
x1.vss.n123                        5.88134e-05
x1.vss.n1376                       1.22238e-05
x1.vss.n719                        1.22244e-05
x1.vss.n1211                       1.21997e-05
x1.vss.n825                        1.21919e-05
x1.vss.n2192                       1.43052e-05
x1.vss.n243                        1.43859e-05
x1.vss.n2109                       1.27508e-05
x1.vss.n668                        1.25847e-05
x1.vss.n2129                       1.35084e-05
x1.vss.n317                        1.34287e-05
x1.vss.n661                        1.34257e-05
x1.vss.n314                         1.3504e-05
x1.vss.n2337                       4.98537e-05
x1.vss.n165                        4.89507e-05
x1.vss.n1494                       1.22244e-05
x1.vss.n722                        1.22238e-05
x1.vss.n1905                       1.42122e-05
x1.vss.n1529                       1.41218e-05
x1.vss.n187                        4.90007e-05
x1.vss.n167                        4.99044e-05
x1.vss.n2224                       1.59937e-05
x1.vss.n213                        1.63427e-05
x1.vss.n590                        1.48674e-05
x1.vss.n211                        1.49656e-05
x1.vss.n1207                       1.22309e-05
x1.vss.n826                         1.2237e-05
x1.vss.n2090                       1.30035e-05
x1.vss.n1499                       1.31066e-05
x1.vss.n1886                       5.87036e-05
x1.vss.n1534                       5.87443e-05
x1.vss.n1879                       5.87036e-05
x1.vss.n1878                       5.87443e-05
x1.vss.n1639                       5.78619e-05
x1.vss.n127                        5.74368e-05
x1.vss.n524                        1.65967e-05
x1.vss.n523                        1.65869e-05
x1.vss.n568                        1.61698e-05
x1.vss.n567                        1.62864e-05
x1.vss.n1663                       5.83403e-05
x1.vss.n1662                       5.83117e-05
x1.vss.n1707                       5.86561e-05
x1.vss.n1706                       5.85967e-05
x1.vss.n2335                       4.81031e-05
x1.vss.n2226                       1.66596e-05
x1.vss.n164                        4.96227e-05
x1.vss.n2333                        4.8796e-05
x1.vss.n2332                        4.9418e-05
x1.vss.n2331                       4.92405e-05
x1.vss.n2227                       4.86892e-05
x1.vss.n2330                       4.90871e-05
x1.vss.n2329                       4.86058e-05
x1.vss.n2328                       4.89548e-05
x1.vss.n2327                       4.85368e-05
x1.vss.n2326                       4.84782e-05
x1.vss.n2325                       4.88408e-05
x1.vss.n2324                       4.87426e-05
x1.vss.n2323                       4.84282e-05
x1.vss.n2322                       4.83852e-05
x1.vss.n2321                       4.86582e-05
x1.vss.n2320                       4.85858e-05
x1.vss.n2319                       4.83484e-05
x1.vss.n2318                       4.83169e-05
x1.vss.n2317                       4.85238e-05
x1.vss.n2316                       4.84708e-05
x1.vss.n2315                       4.82899e-05
x1.vss.n2314                        4.8267e-05
x1.vss.n2313                       4.84257e-05
x1.vss.n2312                       4.83875e-05
x1.vss.n2311                       4.82476e-05
x1.vss.n2310                       4.82314e-05
x1.vss.n2309                       4.83555e-05
x1.vss.n2308                       4.83289e-05
x1.vss.n2307                       4.82179e-05
x1.vss.n2306                       4.82068e-05
x1.vss.n2305                       4.83072e-05
x1.vss.n2304                       4.82899e-05
x1.vss.n2303                        4.8198e-05
x1.vss.n2302                       4.81913e-05
x1.vss.n2301                       4.82765e-05
x1.vss.n2300                        4.8267e-05
x1.vss.n2299                       4.81864e-05
x1.vss.n2298                       4.81833e-05
x1.vss.n2297                       4.82609e-05
x1.vss.n2296                       4.82583e-05
x1.vss.n2295                        4.8182e-05
x1.vss.n2294                       4.81823e-05
x1.vss.n2293                       4.82589e-05
x1.vss.n2292                        4.8263e-05
x1.vss.n2291                       4.81843e-05
x1.vss.n2290                       4.81881e-05
x1.vss.n2289                       4.82704e-05
x1.vss.n2288                       4.82815e-05
x1.vss.n2287                       4.81938e-05
x1.vss.n2286                       4.82014e-05
x1.vss.n2285                       4.82964e-05
x1.vss.n2284                       4.83155e-05
x1.vss.n2283                        4.8211e-05
x1.vss.n2282                       4.82231e-05
x1.vss.n2281                       4.83392e-05
x1.vss.n2280                       4.83679e-05
x1.vss.n2279                       4.82377e-05
x1.vss.n2278                       4.82552e-05
x1.vss.n2277                       4.84023e-05
x1.vss.n2276                       4.84432e-05
x1.vss.n2275                       4.82759e-05
x1.vss.n2274                       4.83004e-05
x1.vss.n2273                       4.84914e-05
x1.vss.n2272                       4.85479e-05
x1.vss.n2271                       4.83291e-05
x1.vss.n2270                       4.83627e-05
x1.vss.n2269                        4.8614e-05
x1.vss.n2268                       4.86911e-05
x1.vss.n2267                       4.84019e-05
x1.vss.n2266                       4.84476e-05
x1.vss.n2265                       4.87809e-05
x1.vss.n2264                       4.88853e-05
x1.vss.n2263                       4.85008e-05
x1.vss.n2262                        4.8563e-05
x1.vss.n2261                       4.90064e-05
x1.vss.n2260                        4.9147e-05
x1.vss.n2259                       4.86363e-05
x1.vss.n2258                       4.87248e-05
x1.vss.n2257                       4.93099e-05
x1.vss.n2256                       4.94985e-05
x1.vss.n2255                       4.88378e-05
x1.vss.n2254                       4.97159e-05
x1.vss.n2253                       5.05024e-05
x1.vss.n2336                       4.91845e-05
x1.vss.n2252                       5.07773e-05
x1.vss.n2251                       5.02722e-05
x1.vss.n166                        4.97364e-05
x1.vss.n2250                       5.10743e-05
x1.vss.n162                        5.06608e-05
x1.vss.n2342                       5.02439e-05
x1.vss.n2249                       5.13894e-05
x1.vss.n161                        5.10518e-05
x1.vss.n2343                       5.07178e-05
x1.vss.n2248                       5.17193e-05
x1.vss.n160                        5.14405e-05
x1.vss.n2344                       5.11661e-05
x1.vss.n2247                       5.20613e-05
x1.vss.n2246                       5.18261e-05
x1.vss.n159                        5.15945e-05
x1.vss.n2245                       5.24137e-05
x1.vss.n155                        5.22094e-05
x1.vss.n2350                       5.20075e-05
x1.vss.n2244                        5.2775e-05
x1.vss.n154                        5.25911e-05
x1.vss.n2351                       5.24083e-05
x1.vss.n2243                       5.31443e-05
x1.vss.n153                         5.2972e-05
x1.vss.n2352                       5.27998e-05
x1.vss.n2242                       5.35212e-05
x1.vss.n2241                       5.33529e-05
x1.vss.n152                        5.31837e-05
x1.vss.n2240                       5.39055e-05
x1.vss.n148                        5.37345e-05
x1.vss.n2358                       5.35616e-05
x1.vss.n2239                       5.42972e-05
x1.vss.n147                        5.41173e-05
x1.vss.n2359                       5.39345e-05
x1.vss.n2238                       5.46969e-05
x1.vss.n146                        5.45019e-05
x1.vss.n2360                       5.43033e-05
x1.vss.n2237                        5.5105e-05
x1.vss.n2236                        5.4889e-05
x1.vss.n145                        5.46685e-05
x1.vss.n2235                       5.55226e-05
x1.vss.n141                         5.5279e-05
x1.vss.n2366                       5.50301e-05
x1.vss.n2234                       5.59509e-05
x1.vss.n140                        5.56727e-05
x1.vss.n2367                       5.53883e-05
x1.vss.n2233                       5.63913e-05
x1.vss.n139                        5.60707e-05
x1.vss.n2368                        5.5743e-05
x1.vss.n2232                       5.68458e-05
x1.vss.n2231                       5.64734e-05
x1.vss.n135                        5.60937e-05
x1.vss.n2230                       5.73165e-05
x1.vss.n134                         5.6881e-05
x1.vss.n2374                       5.64396e-05
x1.vss.n2229                       5.78063e-05
x1.vss.n133                        5.72927e-05
x1.vss.n2375                       5.67799e-05
x1.vss.n2228                       5.83186e-05
x1.vss.n132                        5.77039e-05
x1.vss.n2376                       5.71135e-05
x1.vss.n124                        5.80987e-05
x1.vss.n122                        5.88578e-05
x1.vss.n126                         5.7439e-05
x1.vss.n2384                       5.94302e-05
x1.vss.n2382                       5.77559e-05
x1.vss.n121                        5.93741e-05
x1.vss.n1715                       5.88073e-05
x1.vss.n1714                       5.92447e-05
x1.vss.n1713                       5.91344e-05
x1.vss.n1638                       5.87709e-05
x1.vss.n1712                       5.90401e-05
x1.vss.n1711                       5.87294e-05
x1.vss.n1710                       5.86905e-05
x1.vss.n1709                       5.89593e-05
x1.vss.n1708                       5.88903e-05
x1.vss.n1705                       5.87729e-05
x1.vss.n1704                       5.87218e-05
x1.vss.n1703                       5.85708e-05
x1.vss.n1702                       5.85483e-05
x1.vss.n1701                       5.86774e-05
x1.vss.n1700                       5.86387e-05
x1.vss.n1699                       5.85286e-05
x1.vss.n1698                       5.85113e-05
x1.vss.n1697                       5.86047e-05
x1.vss.n1696                       5.85748e-05
x1.vss.n1695                       5.84962e-05
x1.vss.n1694                       5.84827e-05
x1.vss.n1693                       5.85484e-05
x1.vss.n1692                       5.85249e-05
x1.vss.n1691                       5.84708e-05
x1.vss.n1690                         5.846e-05
x1.vss.n1689                       5.85037e-05
x1.vss.n1688                       5.84844e-05
x1.vss.n1687                       5.84502e-05
x1.vss.n1686                       5.84412e-05
x1.vss.n1685                       5.84666e-05
x1.vss.n1684                         5.845e-05
x1.vss.n1683                       5.84327e-05
x1.vss.n1682                       5.84246e-05
x1.vss.n1681                       5.84341e-05
x1.vss.n1680                       5.84186e-05
x1.vss.n1679                       5.84168e-05
x1.vss.n1678                       5.84089e-05
x1.vss.n1677                       5.84032e-05
x1.vss.n1676                       5.83875e-05
x1.vss.n1675                        5.8401e-05
x1.vss.n1674                       5.83927e-05
x1.vss.n1673                       5.83712e-05
x1.vss.n1672                       5.83541e-05
x1.vss.n1671                        5.8384e-05
x1.vss.n1670                       5.83746e-05
x1.vss.n1669                       5.83355e-05
x1.vss.n1668                       5.83153e-05
x1.vss.n1667                       5.83643e-05
x1.vss.n1666                       5.83529e-05
x1.vss.n1665                        5.8293e-05
x1.vss.n1664                        5.8268e-05
x1.vss.n1661                       5.82117e-05
x1.vss.n1660                       5.81792e-05
x1.vss.n1659                       5.82951e-05
x1.vss.n1658                        5.8276e-05
x1.vss.n1657                       5.81416e-05
x1.vss.n1656                       5.80981e-05
x1.vss.n1655                       5.82539e-05
x1.vss.n1654                       5.82284e-05
x1.vss.n1653                       5.80478e-05
x1.vss.n1652                       5.79896e-05
x1.vss.n1651                       5.81988e-05
x1.vss.n1650                       5.81645e-05
x1.vss.n1649                       5.79223e-05
x1.vss.n1648                       5.78443e-05
x1.vss.n1647                       5.81246e-05
x1.vss.n1646                        5.8078e-05
x1.vss.n1645                       5.77541e-05
x1.vss.n1644                       5.76497e-05
x1.vss.n1643                       5.80226e-05
x1.vss.n1642                       5.79542e-05
x1.vss.n1641                        5.7529e-05
x1.vss.n1640                       5.73897e-05
x1.vss.n129                        5.69262e-05
x1.vss.n1718                       5.80462e-05
x1.vss.n2381                       5.72235e-05
x1.vss.n2380                       5.67439e-05
x1.vss.n2379                       5.65406e-05
x1.vss.n128                        5.69745e-05
x1.vss.n2378                       5.63183e-05
x1.vss.n2377                        5.6705e-05
x1.vss.n131                        5.64208e-05
x1.vss.n130                        5.60791e-05
x1.vss.n2373                        5.6125e-05
x1.vss.n2372                       5.58249e-05
x1.vss.n2371                       5.55576e-05
x1.vss.n136                        5.58195e-05
x1.vss.n2370                       5.52788e-05
x1.vss.n2369                       5.55056e-05
x1.vss.n138                        5.51846e-05
x1.vss.n137                        5.49901e-05
x1.vss.n2365                       5.48575e-05
x1.vss.n2364                       5.46929e-05
x1.vss.n2363                       5.43885e-05
x1.vss.n142                        5.45249e-05
x1.vss.n2362                       5.40781e-05
x1.vss.n2361                       5.41875e-05
x1.vss.n144                        5.38458e-05
x1.vss.n143                        5.37629e-05
x1.vss.n2357                       5.35001e-05
x1.vss.n2356                       5.34441e-05
x1.vss.n2355                       5.31229e-05
x1.vss.n149                        5.31505e-05
x1.vss.n2354                       5.28005e-05
x1.vss.n2353                       5.27973e-05
x1.vss.n151                        5.24403e-05
x1.vss.n150                        5.24781e-05
x1.vss.n2349                       5.20792e-05
x1.vss.n2348                       5.21575e-05
x1.vss.n2347                       5.18403e-05
x1.vss.n156                        5.17138e-05
x1.vss.n2346                       5.15286e-05
x1.vss.n2345                       5.13436e-05
x1.vss.n158                        5.09684e-05
x1.vss.n157                         5.1225e-05
x1.vss.n2341                       5.05891e-05
x1.vss.n2340                       5.09326e-05
x1.vss.n2339                       5.06552e-05
x1.vss.n163                        5.02111e-05
x1.vss.n2338                       5.03973e-05
x1.vss.n1785                       5.94406e-05
x1.vss.n1617                       5.90508e-05
x1.vss.n1616                       5.87232e-05
x1.vss.n1784                       5.94454e-05
x1.vss.n1783                       5.90388e-05
x1.vss.n1782                       5.86775e-05
x1.vss.n1779                       5.90043e-05
x1.vss.n1778                       5.94406e-05
x1.vss.n1780                       5.84687e-05
x1.vss.n1777                       5.94338e-05
x1.vss.n1720                       5.89688e-05
x1.vss.n1719                       5.82054e-05
x1.vss.n1776                       5.94288e-05
x1.vss.n1775                       5.89503e-05
x1.vss.n125                         5.7925e-05
x1.vss.n1536                       5.87827e-05
x1.vss.n1531                       5.86994e-05
x1.vss.n1877                       5.87625e-05
x1.vss.n1538                        5.8791e-05
x1.vss.n1876                       5.87344e-05
x1.vss.n1721                       5.88006e-05
x1.vss.n1537                       5.87803e-05
x1.vss.n1539                       5.87619e-05
x1.vss.n1722                        5.8811e-05
x1.vss.n1543                       5.87969e-05
x1.vss.n1870                       5.87846e-05
x1.vss.n1723                       5.88221e-05
x1.vss.n1544                       5.88124e-05
x1.vss.n1869                        5.8804e-05
x1.vss.n1724                       5.88336e-05
x1.vss.n1545                       5.88269e-05
x1.vss.n1868                       5.88212e-05
x1.vss.n1726                       5.88454e-05
x1.vss.n1725                       5.88408e-05
x1.vss.n1546                       5.88369e-05
x1.vss.n1727                       5.88573e-05
x1.vss.n1550                       5.88542e-05
x1.vss.n1862                       5.88515e-05
x1.vss.n1728                       5.88694e-05
x1.vss.n1551                       5.88673e-05
x1.vss.n1861                       5.88655e-05
x1.vss.n1729                       5.88817e-05
x1.vss.n1552                       5.88802e-05
x1.vss.n1860                        5.8879e-05
x1.vss.n1731                       5.88939e-05
x1.vss.n1730                       5.88929e-05
x1.vss.n1553                       5.88921e-05
x1.vss.n1732                       5.89062e-05
x1.vss.n1557                       5.89056e-05
x1.vss.n1854                        5.8905e-05
x1.vss.n1733                       5.89186e-05
x1.vss.n1558                       5.89181e-05
x1.vss.n1853                       5.89178e-05
x1.vss.n1734                       5.89309e-05
x1.vss.n1559                       5.89306e-05
x1.vss.n1852                       5.89304e-05
x1.vss.n1736                       5.89433e-05
x1.vss.n1735                       5.89431e-05
x1.vss.n1560                        5.8943e-05
x1.vss.n1737                       5.89557e-05
x1.vss.n1564                       5.89556e-05
x1.vss.n1846                       5.89555e-05
x1.vss.n1738                       5.89681e-05
x1.vss.n1565                        5.8968e-05
x1.vss.n1845                        5.8968e-05
x1.vss.n1739                       5.89805e-05
x1.vss.n1566                       5.89805e-05
x1.vss.n1844                       5.89804e-05
x1.vss.n1741                       5.89929e-05
x1.vss.n1740                       5.89929e-05
x1.vss.n1567                       5.89929e-05
x1.vss.n1742                       5.90053e-05
x1.vss.n1571                       5.90053e-05
x1.vss.n1838                       5.90053e-05
x1.vss.n1743                       5.90177e-05
x1.vss.n1572                       5.90177e-05
x1.vss.n1837                       5.90178e-05
x1.vss.n1744                       5.90301e-05
x1.vss.n1573                       5.90301e-05
x1.vss.n1836                       5.90302e-05
x1.vss.n1746                       5.90424e-05
x1.vss.n1745                       5.90425e-05
x1.vss.n1574                       5.90426e-05
x1.vss.n1747                       5.90548e-05
x1.vss.n1578                       5.90549e-05
x1.vss.n1830                        5.9055e-05
x1.vss.n1748                       5.90672e-05
x1.vss.n1579                       5.90673e-05
x1.vss.n1829                       5.90674e-05
x1.vss.n1749                       5.90796e-05
x1.vss.n1580                       5.90797e-05
x1.vss.n1828                       5.90797e-05
x1.vss.n1751                        5.9092e-05
x1.vss.n1750                        5.9092e-05
x1.vss.n1581                       5.90921e-05
x1.vss.n1752                       5.91043e-05
x1.vss.n1585                       5.91044e-05
x1.vss.n1822                       5.91044e-05
x1.vss.n1753                       5.91167e-05
x1.vss.n1586                       5.91167e-05
x1.vss.n1821                       5.91167e-05
x1.vss.n1754                       5.91291e-05
x1.vss.n1587                        5.9129e-05
x1.vss.n1820                       5.91289e-05
x1.vss.n1756                       5.91415e-05
x1.vss.n1755                       5.91412e-05
x1.vss.n1588                        5.9141e-05
x1.vss.n1757                       5.91539e-05
[...]
 Reference value :  6.81415e-06
 Reference value :  6.83415e-06
 Reference value :  6.85415e-06
 Reference value :  6.88415e-06
 Reference value :  6.90415e-06
 Reference value :  6.92415e-06
 Reference value :  6.94415e-06
 Reference value :  6.96415e-06
 Reference value :  6.98415e-06
 Reference value :  7.00415e-06
 Reference value :  7.02415e-06
 Reference value :  7.04415e-06
 Reference value :  7.06415e-06
 Reference value :  7.08415e-06
 Reference value :  7.10415e-06
 Reference value :  7.12415e-06
 Reference value :  7.14415e-06
 Reference value :  7.16415e-06
 Reference value :  7.18415e-06
 Reference value :  7.20415e-06
 Reference value :  7.22415e-06
 Reference value :  7.25415e-06
 Reference value :  7.27415e-06
 Reference value :  7.29415e-06
 Reference value :  7.32415e-06
 Reference value :  7.34415e-06
 Reference value :  7.36415e-06
 Reference value :  7.38415e-06
 Reference value :  7.40415e-06
 Reference value :  7.42415e-06
 Reference value :  7.44415e-06
 Reference value :  7.46415e-06
 Reference value :  7.48415e-06
 Reference value :  7.50415e-06
 Reference value :  7.52415e-06
 Reference value :  7.54415e-06
 Reference value :  7.56415e-06
 Reference value :  7.58415e-06
 Reference value :  7.60415e-06
 Reference value :  7.62415e-06
 Reference value :  7.64415e-06
 Reference value :  7.66415e-06
 Reference value :  7.68415e-06
 Reference value :  7.70415e-06
 Reference value :  7.72415e-06
 Reference value :  7.74415e-06
 Reference value :  7.76415e-06
 Reference value :  7.79415e-06
 Reference value :  7.81415e-06
 Reference value :  7.83415e-06
 Reference value :  7.85415e-06
 Reference value :  7.87415e-06
 Reference value :  7.89415e-06
 Reference value :  7.91415e-06
 Reference value :  7.93415e-06
 Reference value :  7.96415e-06
 Reference value :  7.98415e-06
 Reference value :  8.01415e-06
 Reference value :  8.03415e-06
 Reference value :  8.05415e-06
 Reference value :  8.07415e-06
 Reference value :  8.09415e-06
 Reference value :  8.11415e-06
 Reference value :  8.13415e-06
 Reference value :  8.15415e-06
 Reference value :  8.17415e-06
 Reference value :  8.19415e-06
 Reference value :  8.21415e-06
 Reference value :  8.23415e-06
 Reference value :  8.25415e-06
 Reference value :  8.27415e-06
 Reference value :  8.29415e-06
 Reference value :  8.31415e-06
 Reference value :  8.33415e-06
 Reference value :  8.35415e-06
 Reference value :  8.37415e-06
 Reference value :  8.39415e-06
 Reference value :  8.42415e-06
 Reference value :  8.44415e-06
 Reference value :  8.46415e-06
 Reference value :  8.49415e-06
 Reference value :  8.51415e-06
 Reference value :  8.53415e-06
 Reference value :  8.55415e-06
 Reference value :  8.57415e-06
 Reference value :  8.60415e-06
 Reference value :  8.62415e-06
 Reference value :  8.64415e-06
 Reference value :  8.66415e-06
 Reference value :  8.69415e-06
 Reference value :  8.71415e-06
 Reference value :  8.74415e-06
 Reference value :  8.77415e-06
 Reference value :  8.80415e-06
 Reference value :  8.83415e-06
 Reference value :  8.85415e-06
 Reference value :  8.87415e-06
 Reference value :  8.90415e-06
 Reference value :  8.92415e-06
 Reference value :  8.95415e-06
 Reference value :  8.97415e-06
 Reference value :  8.99415e-06
 Reference value :  9.01415e-06
 Reference value :  9.03415e-06
 Reference value :  9.05415e-06
 Reference value :  9.07415e-06
 Reference value :  9.09415e-06
 Reference value :  9.11415e-06
 Reference value :  9.13415e-06
 Reference value :  9.15415e-06
 Reference value :  9.17415e-06
 Reference value :  9.19415e-06
 Reference value :  9.21415e-06
 Reference value :  9.23415e-06
 Reference value :  9.25415e-06
 Reference value :  9.27415e-06
 Reference value :  9.29415e-06
 Reference value :  9.31415e-06
 Reference value :  9.33415e-06
 Reference value :  9.35415e-06
 Reference value :  9.37415e-06
 Reference value :  9.39415e-06
 Reference value :  9.41415e-06
 Reference value :  9.43415e-06
 Reference value :  9.45415e-06
 Reference value :  9.47415e-06
 Reference value :  9.49415e-06
 Reference value :  9.51415e-06
 Reference value :  9.53415e-06
 Reference value :  9.55415e-06
 Reference value :  9.57415e-06
 Reference value :  9.59415e-06
 Reference value :  9.61415e-06
 Reference value :  9.63415e-06
 Reference value :  9.64415e-06
 Reference value :  9.66415e-06
 Reference value :  9.68415e-06
 Reference value :  9.70415e-06
 Reference value :  9.72415e-06
 Reference value :  9.74415e-06
 Reference value :  9.76415e-06
 Reference value :  9.78415e-06
 Reference value :  9.80415e-06
 Reference value :  9.82415e-06
 Reference value :  9.84415e-06
 Reference value :  9.86415e-06
 Reference value :  9.88415e-06
 Reference value :  9.90415e-06
 Reference value :  9.92415e-06
 Reference value :  9.94415e-06
 Reference value :  9.96415e-06
 Reference value :  9.98415e-06
 Reference value :  1.00042e-05
 Reference value :  1.00142e-05
 Reference value :  1.00342e-05
 Reference value :  1.00542e-05
 Reference value :  1.00742e-05
 Reference value :  1.00942e-05
 Reference value :  1.01142e-05
 Reference value :  1.01342e-05
 Reference value :  1.01542e-05
 Reference value :  1.01742e-05
 Reference value :  1.01942e-05
 Reference value :  1.02142e-05
 Reference value :  1.02342e-05
 Reference value :  1.02542e-05
 Reference value :  1.02742e-05
 Reference value :  1.02942e-05
 Reference value :  1.03142e-05
 Reference value :  1.03342e-05
 Reference value :  1.03542e-05
 Reference value :  1.03742e-05
 Reference value :  1.03942e-05
 Reference value :  1.04142e-05
 Reference value :  1.04342e-05
 Reference value :  1.04542e-05
 Reference value :  1.04742e-05
 Reference value :  1.04942e-05
 Reference value :  1.05142e-05
 Reference value :  1.05342e-05
 Reference value :  1.05542e-05
 Reference value :  1.05742e-05
 Reference value :  1.05942e-05
 Reference value :  1.06142e-05
 Reference value :  1.06342e-05
 Reference value :  1.06542e-05
 Reference value :  1.06742e-05
 Reference value :  1.06942e-05
 Reference value :  1.07142e-05
 Reference value :  1.07242e-05
 Reference value :  1.07442e-05
 Reference value :  1.07642e-05
 Reference value :  1.07842e-05
 Reference value :  1.08042e-05
 Reference value :  1.08242e-05
 Reference value :  1.08442e-05
 Reference value :  1.08642e-05
 Reference value :  1.08842e-05
 Reference value :  1.08942e-05
 Reference value :  1.09142e-05
 Reference value :  1.09342e-05
 Reference value :  1.09542e-05
 Reference value :  1.09742e-05
 Reference value :  1.09842e-05
 Reference value :  1.10042e-05
 Reference value :  1.10242e-05
 Reference value :  1.10442e-05
 Reference value :  1.10642e-05
 Reference value :  1.10842e-05
 Reference value :  1.11042e-05
 Reference value :  1.11242e-05
 Reference value :  1.11442e-05
 Reference value :  1.11642e-05
 Reference value :  1.11842e-05
 Reference value :  1.12042e-05
 Reference value :  1.12242e-05
 Reference value :  1.12442e-05
 Reference value :  1.12642e-05
 Reference value :  1.12842e-05
 Reference value :  1.13042e-05
 Reference value :  1.13242e-05
 Reference value :  1.13542e-05
 Reference value :  1.13842e-05
 Reference value :  1.14142e-05
 Reference value :  1.14342e-05
 Reference value :  1.14542e-05
 Reference value :  1.14742e-05
 Reference value :  1.14942e-05
 Reference value :  1.15242e-05
 Reference value :  1.15542e-05
 Reference value :  1.15742e-05
 Reference value :  1.15942e-05
 Reference value :  1.16142e-05
 Reference value :  1.16442e-05
 Reference value :  1.16742e-05
 Reference value :  1.17042e-05
 Reference value :  1.17242e-05
 Reference value :  1.17542e-05
 Reference value :  1.17742e-05
 Reference value :  1.18042e-05
 Reference value :  1.18342e-05
 Reference value :  1.18642e-05
 Reference value :  1.18842e-05
 Reference value :  1.19042e-05
 Reference value :  1.19242e-05
 Reference value :  1.19542e-05
 Reference value :  1.19842e-05
 Reference value :  1.20042e-05
 Reference value :  1.20342e-05
 Reference value :  1.20642e-05
 Reference value :  1.20842e-05
 Reference value :  1.21142e-05
 Reference value :  1.21342e-05
 Reference value :  1.21642e-05
 Reference value :  1.21942e-05
 Reference value :  1.22242e-05
 Reference value :  1.22442e-05
 Reference value :  1.22642e-05
 Reference value :  1.22842e-05
 Reference value :  1.23042e-05
 Reference value :  1.23242e-05
 Reference value :  1.23442e-05
 Reference value :  1.23642e-05
 Reference value :  1.23842e-05
 Reference value :  1.24042e-05
 Reference value :  1.24342e-05
 Reference value :  1.24642e-05
 Reference value :  1.24942e-05
 Reference value :  1.25242e-05
 Reference value :  1.25542e-05
 Reference value :  1.25742e-05
 Reference value :  1.26042e-05
 Reference value :  1.26242e-05
 Reference value :  1.26442e-05
 Reference value :  1.26642e-05
 Reference value :  1.26942e-05
 Reference value :  1.27242e-05
 Reference value :  1.27442e-05
 Reference value :  1.27642e-05
 Reference value :  1.27842e-05
 Reference value :  1.28042e-05
 Reference value :  1.28242e-05
 Reference value :  1.28542e-05
 Reference value :  1.28742e-05
 Reference value :  1.28942e-05
 Reference value :  1.29242e-05
 Reference value :  1.29542e-05
 Reference value :  1.29842e-05
 Reference value :  1.30042e-05
 Reference value :  1.30242e-05
 Reference value :  1.30442e-05
 Reference value :  1.30642e-05
 Reference value :  1.30842e-05
 Reference value :  1.31042e-05
 Reference value :  1.31242e-05
 Reference value :  1.31442e-05
 Reference value :  1.31642e-05
 Reference value :  1.31842e-05
 Reference value :  1.32042e-05
 Reference value :  1.32242e-05
 Reference value :  1.32442e-05
 Reference value :  1.32642e-05
 Reference value :  1.32842e-05
 Reference value :  1.33042e-05
 Reference value :  1.33242e-05
 Reference value :  1.33442e-05
 Reference value :  1.33642e-05
 Reference value :  1.33842e-05
 Reference value :  1.34042e-05
 Reference value :  1.34242e-05
 Reference value :  1.34442e-05
 Reference value :  1.34642e-05
 Reference value :  1.34942e-05
 Reference value :  1.35242e-05
 Reference value :  1.35442e-05
 Reference value :  1.35742e-05
 Reference value :  1.35942e-05
 Reference value :  1.36142e-05
 Reference value :  1.36342e-05
 Reference value :  1.36542e-05
 Reference value :  1.36742e-05
 Reference value :  1.36942e-05
 Reference value :  1.37142e-05
 Reference value :  1.37342e-05
 Reference value :  1.37542e-05
 Reference value :  1.37742e-05
 Reference value :  1.37942e-05
 Reference value :  1.38142e-05
 Reference value :  1.38342e-05
 Reference value :  1.38542e-05
 Reference value :  1.38842e-05
 Reference value :  1.39142e-05
 Reference value :  1.39342e-05
 Reference value :  1.39542e-05
 Reference value :  1.39742e-05
 Reference value :  1.39942e-05
 Reference value :  1.40142e-05
 Reference value :  1.40442e-05
 Reference value :  1.40642e-05
 Reference value :  1.40842e-05
 Reference value :  1.41042e-05
 Reference value :  1.41242e-05
 Reference value :  1.41442e-05
 Reference value :  1.41642e-05
 Reference value :  1.41842e-05
 Reference value :  1.42142e-05
 Reference value :  1.42342e-05
 Reference value :  1.42542e-05
 Reference value :  1.42742e-05
 Reference value :  1.42942e-05
 Reference value :  1.43142e-05
 Reference value :  1.43442e-05
 Reference value :  1.43642e-05
 Reference value :  1.43842e-05
 Reference value :  1.44042e-05
 Reference value :  1.44242e-05
 Reference value :  1.44442e-05
 Reference value :  1.44642e-05
 Reference value :  1.44942e-05
 Reference value :  1.45142e-05
 Reference value :  1.45442e-05
 Reference value :  1.45642e-05
 Reference value :  1.45842e-05
 Reference value :  1.46042e-05
 Reference value :  1.46242e-05
 Reference value :  1.46442e-05
 Reference value :  1.46642e-05
 Reference value :  1.46842e-05
 Reference value :  1.47042e-05
 Reference value :  1.47242e-05
 Reference value :  1.47442e-05
 Reference value :  1.47642e-05
 Reference value :  1.47842e-05
 Reference value :  1.48042e-05
 Reference value :  1.48242e-05
 Reference value :  1.48542e-05
 Reference value :  1.48842e-05
 Reference value :  1.49042e-05
 Reference value :  1.49242e-05
 Reference value :  1.49442e-05
 Reference value :  1.49642e-05
 Reference value :  1.49842e-05
 Reference value :  1.50042e-05
 Reference value :  1.50242e-05
 Reference value :  1.50442e-05
 Reference value :  1.50642e-05
 Reference value :  1.50842e-05
 Reference value :  1.51042e-05
 Reference value :  1.51242e-05
 Reference value :  1.51442e-05
 Reference value :  1.51642e-05
 Reference value :  1.51842e-05
 Reference value :  1.52042e-05
 Reference value :  1.52242e-05
 Reference value :  1.52442e-05
 Reference value :  1.52642e-05
 Reference value :  1.52842e-05
 Reference value :  1.53042e-05
 Reference value :  1.53242e-05
 Reference value :  1.53442e-05
 Reference value :  1.53642e-05
 Reference value :  1.53842e-05
 Reference value :  1.54042e-05
 Reference value :  1.54242e-05
 Reference value :  1.54442e-05
 Reference value :  1.54642e-05
 Reference value :  1.54842e-05
 Reference value :  1.55042e-05
 Reference value :  1.55242e-05
 Reference value :  1.55442e-05
 Reference value :  1.55642e-05
 Reference value :  1.55842e-05
 Reference value :  1.56042e-05
 Reference value :  1.56242e-05
 Reference value :  1.56442e-05
 Reference value :  1.56642e-05
 Reference value :  1.56842e-05
 Reference value :  1.57042e-05
 Reference value :  1.57242e-05
 Reference value :  1.57442e-05
 Reference value :  1.57642e-05
 Reference value :  1.57842e-05
 Reference value :  1.58042e-05
 Reference value :  1.58242e-05
 Reference value :  1.58442e-05
 Reference value :  1.58642e-05
 Reference value :  1.58842e-05
 Reference value :  1.59042e-05
 Reference value :  1.59242e-05
 Reference value :  1.59442e-05
 Reference value :  1.59742e-05
 Reference value :  1.60042e-05
 Reference value :  1.60342e-05
 Reference value :  1.60642e-05
 Reference value :  1.60842e-05
 Reference value :  1.61042e-05
 Reference value :  1.61342e-05
 Reference value :  1.61642e-05
 Reference value :  1.61942e-05
 Reference value :  1.62142e-05
 Reference value :  1.62342e-05
 Reference value :  1.62542e-05
 Reference value :  1.62742e-05
 Reference value :  1.63042e-05
 Reference value :  1.63342e-05
 Reference value :  1.63642e-05
 Reference value :  1.63942e-05
 Reference value :  1.64142e-05
 Reference value :  1.64342e-05
 Reference value :  1.64542e-05
 Reference value :  1.64742e-05
 Reference value :  1.64942e-05
 Reference value :  1.65142e-05
 Reference value :  1.65442e-05
 Reference value :  1.65642e-05
 Reference value :  1.65842e-05
 Reference value :  1.66142e-05
 Reference value :  1.66342e-05
 Reference value :  1.66642e-05
 Reference value :  1.66942e-05
 Reference value :  1.67142e-05
 Reference value :  1.67342e-05
 Reference value :  1.67542e-05
 Reference value :  1.67742e-05
 Reference value :  1.67942e-05
 Reference value :  1.68142e-05
 Reference value :  1.68342e-05
 Reference value :  1.68542e-05
 Reference value :  1.68742e-05
 Reference value :  1.68942e-05
 Reference value :  1.69142e-05
 Reference value :  1.69342e-05
 Reference value :  1.69542e-05
 Reference value :  1.69742e-05
 Reference value :  1.69942e-05
 Reference value :  1.70142e-05
 Reference value :  1.70342e-05
 Reference value :  1.70542e-05
 Reference value :  1.70742e-05
 Reference value :  1.70942e-05
 Reference value :  1.71142e-05
 Reference value :  1.71342e-05
 Reference value :  1.71542e-05
 Reference value :  1.71742e-05
 Reference value :  1.72042e-05
 Reference value :  1.72242e-05
 Reference value :  1.72442e-05
 Reference value :  1.72642e-05
 Reference value :  1.72842e-05
 Reference value :  1.73042e-05
 Reference value :  1.73242e-05
 Reference value :  1.73442e-05
 Reference value :  1.73642e-05
 Reference value :  1.73842e-05
 Reference value :  1.74042e-05
 Reference value :  1.74242e-05
 Reference value :  1.74442e-05
 Reference value :  1.74642e-05
 Reference value :  1.74842e-05
 Reference value :  1.75142e-05
 Reference value :  1.75342e-05
 Reference value :  1.75542e-05
 Reference value :  1.75742e-05
 Reference value :  1.75942e-05
 Reference value :  1.76142e-05
 Reference value :  1.76342e-05
 Reference value :  1.76542e-05
 Reference value :  1.76742e-05
 Reference value :  1.77042e-05
 Reference value :  1.77242e-05
 Reference value :  1.77442e-05
 Reference value :  1.77642e-05
 Reference value :  1.77842e-05
 Reference value :  1.78042e-05
 Reference value :  1.78242e-05
 Reference value :  1.78442e-05
 Reference value :  1.78642e-05
 Reference value :  1.78842e-05
 Reference value :  1.79142e-05
 Reference value :  1.79342e-05
 Reference value :  1.79542e-05
 Reference value :  1.79742e-05
 Reference value :  1.80042e-05
 Reference value :  1.80242e-05
 Reference value :  1.80442e-05
 Reference value :  1.80642e-05
 Reference value :  1.80842e-05
 Reference value :  1.81042e-05
 Reference value :  1.81242e-05
 Reference value :  1.81442e-05
 Reference value :  1.81642e-05
 Reference value :  1.81842e-05
 Reference value :  1.82042e-05
 Reference value :  1.82242e-05
 Reference value :  1.82442e-05
 Reference value :  1.82642e-05
 Reference value :  1.82942e-05
 Reference value :  1.83142e-05
 Reference value :  1.83342e-05
 Reference value :  1.83542e-05
 Reference value :  1.83742e-05
 Reference value :  1.83942e-05
 Reference value :  1.84142e-05
 Reference value :  1.84342e-05
 Reference value :  1.84542e-05
 Reference value :  1.84742e-05
 Reference value :  1.84942e-05
 Reference value :  1.85142e-05
 Reference value :  1.85342e-05
 Reference value :  1.85542e-05
 Reference value :  1.85842e-05
 Reference value :  1.86042e-05
 Reference value :  1.86242e-05
 Reference value :  1.86442e-05
 Reference value :  1.86642e-05
 Reference value :  1.86842e-05
 Reference value :  1.87042e-05
 Reference value :  1.87242e-05
 Reference value :  1.87442e-05
 Reference value :  1.87642e-05
 Reference value :  1.87942e-05
 Reference value :  1.88242e-05
 Reference value :  1.88442e-05
 Reference value :  1.88642e-05
 Reference value :  1.88842e-05
 Reference value :  1.89042e-05
 Reference value :  1.89242e-05
 Reference value :  1.89442e-05
 Reference value :  1.89642e-05
 Reference value :  1.89842e-05
 Reference value :  1.90042e-05
 Reference value :  1.90242e-05
 Reference value :  1.90442e-05
 Reference value :  1.90642e-05
 Reference value :  1.90842e-05
 Reference value :  1.91142e-05
 Reference value :  1.91442e-05
 Reference value :  1.91642e-05
 Reference value :  1.91942e-05
 Reference value :  1.92142e-05
 Reference value :  1.92342e-05
 Reference value :  1.92542e-05
 Reference value :  1.92742e-05
 Reference value :  1.92942e-05
 Reference value :  1.93142e-05
 Reference value :  1.93342e-05
 Reference value :  1.93542e-05
 Reference value :  1.93742e-05
 Reference value :  1.93942e-05
 Reference value :  1.94142e-05
 Reference value :  1.94342e-05
 Reference value :  1.94542e-05
 Reference value :  1.94742e-05
 Reference value :  1.94942e-05
 Reference value :  1.95142e-05
 Reference value :  1.95342e-05
 Reference value :  1.95542e-05
 Reference value :  1.95842e-05
 Reference value :  1.96042e-05
 Reference value :  1.96242e-05
 Reference value :  1.96442e-05
 Reference value :  1.96642e-05
 Reference value :  1.96842e-05
 Reference value :  1.97042e-05
 Reference value :  1.97242e-05
 Reference value :  1.97442e-05
 Reference value :  1.97642e-05
 Reference value :  1.97842e-05
 Reference value :  1.98042e-05
 Reference value :  1.98242e-05
 Reference value :  1.98442e-05
 Reference value :  1.98642e-05
 Reference value :  1.98842e-05
 Reference value :  1.99042e-05
 Reference value :  1.99242e-05
 Reference value :  1.99442e-05
 Reference value :  1.99642e-05
 Reference value :  1.99842e-05
 Reference value :  2.00000e-05
No. of Data Rows : 2025
 meas tran sr_pos max deriv(v(vout)) failed!

 meas tran sr_neg min deriv(v(vout)) failed!

Note: Simulation executed from .control section 
