
Note: Compatibility modes selected: hs a


Circuit: ** sch_path: /foss/designs/sky130_op_amp/runs/run_2025-10-21_19-47-49/parameters/gain_mc/run_1/run_0/sky130_op_amp_tb.sch

option SCALE: Scale is set to 1e-06 for instance and model parameters
option SCALE: Scale is set to 1e-06 for instance and model parameters
option SCALE: Scale is set to 1e-06 for instance and model parameters
option SCALE: Scale is set to 1e-06 for instance and model parameters
Doing analysis at TEMP = 27.000000 and TNOM = 27.000000

Using SPARSE 1.3 as Direct Linear Solver
 Reference value :  1.00000e+03
 Reference value :  1.77828e+03
 Reference value :  3.16228e+03
 Reference value :  5.62341e+03
 Reference value :  1.00000e+04
 Reference value :  1.77828e+04
 Reference value :  3.16228e+04
 Reference value :  6.30957e+04
 Reference value :  1.00000e+05
 Reference value :  1.77828e+05
 Reference value :  3.16228e+05
 Reference value :  5.62341e+05
 Reference value :  1.00000e+06
 Reference value :  1.77828e+06
 Reference value :  3.16228e+06
 Reference value :  5.62341e+06
 Reference value :  1.00000e+07
 Reference value :  1.77828e+07
 Reference value :  2.81838e+07
 Reference value :  5.01187e+07
 Reference value :  8.91251e+07
No. of Data Rows : 101
a0                  =  1.925017e+02
ugf                 =  8.556013e+06
pm                  =  8.489098e+01
Note: Simulation executed from .control section 
