
Note: Compatibility modes selected: hs a


Circuit: ** sch_path: /foss/designs/sky130_op_amp/runs/run_2025-10-21_19-47-49/parameters/gain_mc/run_0/run_3/sky130_op_amp_tb.sch

option SCALE: Scale is set to 1e-06 for instance and model parameters
option SCALE: Scale is set to 1e-06 for instance and model parameters
option SCALE: Scale is set to 1e-06 for instance and model parameters
option SCALE: Scale is set to 1e-06 for instance and model parameters
Doing analysis at TEMP = -40.000000 and TNOM = 27.000000

Using SPARSE 1.3 as Direct Linear Solver
 Reference value :  1.00000e+03
 Reference value :  2.23872e+03
 Reference value :  5.01187e+03
 Reference value :  7.94328e+03
 Reference value :  1.41254e+04
 Reference value :  2.51189e+04
 Reference value :  3.98107e+04
 Reference value :  6.30957e+04
 Reference value :  1.00000e+05
 Reference value :  1.41254e+05
 Reference value :  2.23872e+05
 Reference value :  3.16228e+05
 Reference value :  5.01187e+05
 Reference value :  7.07946e+05
 Reference value :  1.00000e+06
 Reference value :  1.41254e+06
 Reference value :  1.99526e+06
 Reference value :  2.81838e+06
 Reference value :  3.98107e+06
 Reference value :  6.30957e+06
 Reference value :  1.00000e+07
 Reference value :  1.58489e+07
 Reference value :  2.23872e+07
 Reference value :  3.16228e+07
 Reference value :  4.46684e+07
 Reference value :  6.30957e+07
 Reference value :  1.00000e+08
No. of Data Rows : 101
a0                  =  2.415381e+03
ugf                 =  1.494436e+07
pm                  =  7.665505e+01
Note: Simulation executed from .control section 
