
Note: Compatibility modes selected: hs a


Circuit: ** sch_path: /foss/designs/sky130_op_amp/runs/run_2025-10-21_18-16-27/parameters/spice_params/run_0/sky130_op_amp_tb.sch

option SCALE: Scale is set to 1e-06 for instance and model parameters
option SCALE: Scale is set to 1e-06 for instance and model parameters
option SCALE: Scale is set to 1e-06 for instance and model parameters
option SCALE: Scale is set to 1e-06 for instance and model parameters
Doing analysis at TEMP = 27.000000 and TNOM = 27.000000

Using SPARSE 1.3 as Direct Linear Solver
 Reference value :  1.00000e+03
 Reference value :  5.01187e+04
 Reference value :  2.81838e+06
No. of Data Rows : 101
a0                  =  3.734044e+03
ugf                 =  1.157190e+07
 meas ac pm find 180+vout_phase when vout_mag=1 failed!

Doing analysis at TEMP = 27.000000 and TNOM = 27.000000

Using SPARSE 1.3 as Direct Linear Solver
 Reference value : -1.00000e-03
 Reference value :  0.00000e+00
 Reference value :  1.00000e-03
No. of Data Rows : 3
vout_offset         =  1.010853e+00
Doing analysis at TEMP = 27.000000 and TNOM = 27.000000

Using SPARSE 1.3 as Direct Linear Solver
 Reference value : -5.00000e-03
 Reference value : -4.00000e-03
 Reference value : -3.00000e-03
 Reference value : -2.00000e-03
 Reference value : -1.00000e-03
 Reference value :  0.00000e+00
 Reference value :  1.00000e-03
 Reference value :  2.00000e-03
 Reference value :  3.00000e-03
 Reference value :  4.00000e-03
 Reference value :  5.00000e-03
No. of Data Rows : 11
vin_offset          =  -1.153609e-04
Doing analysis at TEMP = 27.000000 and TNOM = 27.000000

Using SPARSE 1.3 as Direct Linear Solver

Initial Transient Solution
--------------------------

Node                                   Voltage
----                                   -------
vout                                   1.01085
vss                                          0
net2                                         0
net1                                       0.9
vdd                                        1.8
ibias                                 0.679832
vn                                         0.9
vp                                         0.9
x1.a_8862_4192.t27                  0.00122138
x1.en.t0                                   1.8
x1.vss.t311                        0.000357782
x1.vss.t215                        0.000339369
x1.vdd.t97                             1.79742
x1.vdd.t96                             1.79768
x1.vdd.t44                             1.79773
x1.vdd.t95                             1.79772
x1.vdd.t93                             1.79772
x1.vdd.t94                             1.79721
x1.vdd.t47                             1.79773
x1.a_3868_4185.t39                  0.00792886
x1.ibias.t10                          0.679811
x1.a_3329_8823.t39                    0.179233
x1.vss.t0                          0.000533061
x1.a_n1962_4406.t59                 0.00760615
x1.ibias.t11                          0.679811
x1.vout.t21                            1.00815
x1.vss.t6                          0.000600543
x1.a_n1962_4406.t58                   0.007606
x1.ibias.t12                          0.679811
x1.vout.t53                            1.00817
x1.vss.t211                        0.000318155
x1.vss.t209                         0.00031832
x1.vss.t210                        0.000333267
x1.vss.t30                         0.000351968
x1.a_3329_8823.t38                    0.179233
x1.ibias.t13                          0.679811
x1.a_3868_4185.t38                  0.00792889
x1.vss.t1                          0.000543347
x1.vss.t208                        0.000661817
x1.vss.t207                        0.000661817
x1.vss.t64                         0.000551694
x1.vdd.t92                             1.79861
x1.vdd.t91                             1.79886
x1.vdd.t71                             1.79888
x1.a_3868_4185.t37                  0.00792889
x1.ibias.t14                          0.679811
x1.a_3329_8823.t8                     0.179235
x1.vss.t11                         0.000553576
x1.a_n735_8972.t23                    0.592861
x1.vp.t0                                   0.9
x1.a_3329_8823.t56                    0.180097
x1.vss.t2                          0.000575366
x1.vss.t310                        0.000944806
x1.en.t1                                   1.8
x1.a_n1962_4406.t123                0.00747959
x1.vss.t77                         0.000600677
x1.a_3868_4185.t36                   0.0077399
x1.ibias.t15                          0.679811
x1.a_3329_8823.t17                    0.179241
x1.vss.t7                          0.000510275
x1.a_3329_8823.t66                    0.180127
x1.vn.t0                                   0.9
x1.a_n935_8875.t15                    0.592509
x1.vss.t4                          0.000570314
x1.vdd.t19                              1.7985
x1.a_n735_8972.t27                     0.59309
x1.vout.t67                            1.01202
x1.vdd.t15                             1.79888
x1.a_n1962_4406.t122                0.00755885
x1.en.t2                                   1.8
x1.vss.t309                        0.000945133
x1.vss.t8                          0.000600657
x1.a_3329_8823.t65                    0.180097
x1.vn.t1                                   0.9
x1.a_n935_8875.t14                    0.592504
x1.vss.t5                           0.00057887
x1.vdd.t36                             1.79749
x1.a_n735_8972.t28                     0.59309
x1.vout.t77                            1.01193
x1.vdd.t5                              1.79888
x1.vss.t206                        0.000661817
x1.vss.t205                        0.000661817
x1.a_3329_8823.t55                    0.180002
x1.a_n1962_4406.t57                 0.00780599
x1.ibias.t16                          0.679811
x1.vout.t45                            1.00812
x1.vss.t212                         0.00060058
x1.a_n1962_4406.t56                 0.00761145
x1.ibias.t17                          0.679811
x1.vout.t2                             1.00813
x1.vss.t308                         0.00094461
x1.en.t3                                   1.8
x1.a_n1962_4406.t121                0.00756233
x1.vss.t19                         0.000600599
x1.a_3329_8823.t43                    0.180105
x1.vn.t2                                   0.9
x1.a_n935_8875.t13                    0.592608
x1.vdd.t90                             1.79862
x1.vdd.t89                             1.79887
x1.a_n1962_4406.t79                 0.00770132
x1.vss.t203                        0.000597972
x1.vss.t204                        0.000597972
x1.vss.t20                         0.000600618
x1.a_n1962_4406.t120                0.00756227
x1.en.t4                                   1.8
x1.vss.t307                        0.000946871
x1.vout.t38                            1.00814
x1.ibias.t18                          0.679811
x1.a_n1962_4406.t55                 0.00760652
x1.vss.t12                         0.000600637
x1.vss.t202                        0.000597972
x1.vss.t201                        0.000597972
x1.a_n1962_4406.t78                 0.00750695
x1.vss.t56                         0.000600772
x1.vdd.t88                             1.79742
x1.vdd.t87                             1.79767
x1.a_n935_8875.t12                    0.592504
x1.vn.t3                                   0.9
x1.a_3329_8823.t62                    0.180002
x1.vss.t84                         0.000588228
x1.vout.t46                            1.00812
x1.ibias.t19                          0.679811
x1.a_n1962_4406.t54                 0.00780599
x1.vss.t9                          0.000600561
x1.vdd.t86                             1.79773
x1.vdd.t84                             1.79773
x1.vdd.t85                             1.79722
x1.a_3329_8823.t63                    0.180024
x1.vp.t1                                   0.9
x1.a_n735_8972.t22                    0.592857
x1.vss.t89                         0.000558818
x1.vss.t306                         0.00094489
x1.en.t5                                   1.8
x1.a_n1962_4406.t119                0.00756376
x1.vdd.t17                             1.79853
x1.a_n735_8972.t29                     0.59309
x1.vout.t65                            1.01211
x1.vdd.t16                             1.79852
x1.a_n735_8972.t30                     0.59309
x1.vout.t64                            1.01209
x1.vss.t198                        0.000597972
x1.vss.t197                        0.000597972
x1.a_n1962_4406.t53                 0.00771855
x1.ibias.t20                          0.679811
x1.vout.t42                            1.00812
x1.vss.t45                         0.000600589
x1.vout.t35                            1.00812
x1.ibias.t21                          0.679811
x1.a_n1962_4406.t52                 0.00760853
x1.vss.t16                          0.00060053
x1.vss.t200                        0.000406812
x1.vss.t199                        0.000406812
x1.a_3868_4185.t55                  0.00765277
x1.vss.t27                         0.000459848
x1.vss.t196                        0.000406812
x1.vss.t195                        0.000406812
x1.a_3868_4185.t54                  0.00765304
x1.a_n1962_4406.t77                 0.00769659
x1.vss.t193                        0.000597972
x1.vss.t194                        0.000597972
x1.vss.t38                         0.000600699
x1.a_3329_8823.t42                    0.180113
x1.vn.t4                                   0.9
x1.a_n935_8875.t11                    0.592502
x1.a_n1962_4406.t118                0.00755956
x1.en.t6                                   1.8
x1.vss.t305                         0.00094042
x1.vss.t15                         0.000600519
x1.a_n1962_4406.t117                0.00756378
x1.en.t7                                   1.8
x1.vss.t304                        0.000931854
x1.vss.t192                        0.000335442
x1.vss.t191                        0.000328068
x1.vss.t22                         0.000331993
x1.a_n735_8972.t21                    0.592951
x1.vp.t2                                   0.9
x1.a_3329_8823.t73                    0.180086
x1.vss.t313                        0.000544253
x1.a_n1962_4406.t51                 0.00761069
x1.ibias.t22                          0.679811
x1.vout.t9                             1.00815
x1.a_n1962_4406.t116                0.00756611
x1.en.t8                                   1.8
x1.vss.t303                         0.00091093
x1.a_3329_8823.t35                    0.179272
x1.ibias.t23                          0.679811
x1.a_3868_4185.t35                  0.00786442
x1.vss.t14                         0.000563956
x1.ibias.t7                           0.679598
x1.ibias.t6                             0.6798
x1.a_8862_4192.t0                   0.00145153
x1.vss.t214                        0.000343233
x1.vss.t302                        0.000368451
x1.en.t9                                   1.8
x1.a_8862_4192.t26                  0.00122074
x1.a_n935_8875.t33                    0.594085
x1.a_n935_8875.t32                       0.593
x1.vdd.t110                            1.79715
x1.vdd.t8                              1.79773
x1.a_n1962_4406.t50                 0.00761311
x1.ibias.t24                          0.679811
x1.vout.t3                             1.00818
x1.vss.t190                        0.000597972
x1.vss.t188                        0.000597972
x1.vss.t189                        0.000597972
x1.vout.t0                             1.00815
x1.ibias.t25                          0.679811
x1.a_n1962_4406.t49                 0.00761153
x1.vout.t6                             1.00817
x1.ibias.t26                          0.679811
x1.a_n1962_4406.t48                 0.00761395
x1.a_3868_4185.t53                  0.00784709
x1.vss.t186                        0.000406812
x1.vss.t187                        0.000406812
x1.vss.t51                         0.000574879
x1.a_8862_4192.t25                  0.00122063
x1.en.t10                                  1.8
x1.vss.t301                        0.000341826
x1.vss.t219                         0.00034732
x1.vss.t185                        0.000323773
x1.vss.t183                        0.000323861
x1.vss.t184                        0.000338763
x1.vdd.t7                              1.79753
x1.a_n735_8972.t31                     0.59309
x1.vout.t62                            1.01202
x1.a_n735_8972.t7                      0.59309
x1.x62.x0.t1                           0.59309
x1.x62.x0.t2                           0.59309
x1.a_9909_7861.t0                      0.59309
x1.vss.t218                        0.000327229
x1.x62.x0.rbody_3                            0
x1.a_3868_4185.t34                   0.0078554
x1.ibias.t27                          0.679811
x1.a_3329_8823.t4                     0.179268
x1.vss.t10                         0.000476226
x1.a_8862_4192.t3                   0.00145153
x1.ibias.t4                           0.679799
x1.ibias.t5                           0.679687
x1.vss.t300                        0.000941406
x1.en.t11                                  1.8
x1.a_n1962_4406.t115                0.00756436
x1.vss.t17                         0.000600528
x1.a_n1962_4406.t114                0.00747977
x1.en.t12                                  1.8
x1.vss.t299                        0.000913347
x1.vss.t182                        0.000597972
x1.vss.t181                        0.000597972
x1.a_n735_8972.t24                    0.594374
x1.a_n935_8875.t34                    0.593014
x1.vdd.t103                            1.79656
x1.vdd.t30                             1.79773
x1.vss.t180                        0.000661817
x1.vss.t179                        0.000661817
x1.a_3329_8823.t54                    0.179998
x1.a_3329_8823.t2                     0.179268
x1.ibias.t28                          0.679811
x1.a_3868_4185.t33                  0.00792879
x1.vss.t13                         0.000492706
x1.vss.t178                        0.000334023
x1.vss.t177                        0.000326638
x1.vss.t293                        0.000708056
x1.en.t13                                  1.8
x1.a_3868_4185.t79                  0.00769494
x1.vss.t18                         0.000522467
x1.a_n935_8875.t10                    0.592509
x1.vn.t5                                   0.9
x1.a_3329_8823.t64                    0.180103
x1.vss.t298                        0.000913672
x1.en.t14                                  1.8
x1.a_n1962_4406.t113                0.00755863
x1.vss.t176                        0.000597972
x1.vss.t175                        0.000597972
x1.a_n1962_4406.t76                 0.00769878
x1.a_3329_8823.t71                    0.180019
x1.vn.t6                                   0.9
x1.a_n935_8875.t9                     0.592498
x1.vdd.t83                             1.79861
x1.vdd.t82                             1.79886
x1.a_3868_4185.t78                  0.00769383
x1.en.t15                                  1.8
x1.vss.t297                        0.000728223
x1.a_3868_4185.t77                  0.00769296
x1.en.t16                                  1.8
x1.vss.t296                        0.000720973
x1.vdd.t33                             1.79852
x1.a_n735_8972.t32                     0.59309
x1.vout.t75                             1.0121
x1.vss.t295                        0.000356371
x1.en.t17                                  1.8
x1.a_8862_4192.t24                  0.00121994
x1.a_3329_8823.t28                    0.179242
x1.ibias.t29                          0.679811
x1.a_3868_4185.t32                  0.00785947
x1.a_3329_8823.t77                     0.18013
x1.vp.t3                                   0.9
x1.a_n735_8972.t20                    0.592869
x1.vdd.t105                            1.79851
x1.a_n735_8972.t33                     0.59309
x1.vout.t86                            1.01205
x1.a_3868_4185.t31                  0.00774134
x1.ibias.t30                          0.679811
x1.a_3329_8823.t11                    0.179237
x1.a_n1962_4406.t112                0.00755918
x1.en.t18                                  1.8
x1.vss.t294                        0.000936132
x1.a_8862_4192.t23                  0.00121986
x1.en.t19                                  1.8
x1.vss.t292                        0.000336948
x1.vss.t174                        0.000319209
x1.vss.t172                        0.000319231
x1.vss.t173                        0.000334029
x1.a_3329_8823.t12                    0.179237
x1.ibias.t31                          0.679811
x1.a_3868_4185.t30                  0.00774137
x1.a_3868_4185.t52                  0.00784214
x1.vss.t170                        0.000406812
x1.vss.t171                        0.000406812
x1.vout.t49                            1.00816
x1.ibias.t32                          0.679811
x1.a_n1962_4406.t47                 0.00760587
x1.vout.t28                            1.00819
x1.ibias.t33                          0.679811
x1.a_n1962_4406.t46                 0.00760656
x1.a_n1962_4406.t45                 0.00771861
x1.ibias.t34                          0.679811
x1.vout.t57                            1.00821
x1.a_3868_4185.t76                  0.00762595
x1.en.t20                                  1.8
x1.vss.t291                        0.000711627
x1.a_3329_8823.t61                    0.180102
x1.vp.t4                                   0.9
x1.a_n735_8972.t19                    0.592857
x1.vout.t69                            1.01211
x1.a_n735_8972.t34                     0.59309
x1.vdd.t23                             1.79761
x1.vdd.t13                             1.79888
x1.vss.t130                        0.000597972
x1.vss.t129                        0.000597972
x1.a_3868_4185.t75                  0.00769498
x1.en.t21                                  1.8
x1.vss.t290                         0.00070906
x1.vss.t289                        0.000711905
x1.en.t22                                  1.8
x1.a_3868_4185.t74                  0.00769353
x1.vout.t54                            1.00813
x1.ibias.t35                          0.679811
x1.a_n1962_4406.t44                 0.00771755
x1.a_3868_4185.t29                  0.00792886
x1.ibias.t36                          0.679811
x1.a_3329_8823.t18                    0.179232
x1.vss.t169                        0.000597972
x1.vss.t168                        0.000597972
x1.a_n1962_4406.t43                 0.00760795
x1.ibias.t37                          0.679811
x1.vout.t52                            1.00813
x1.vout.t25                            1.00812
x1.ibias.t38                          0.679811
x1.a_n1962_4406.t42                 0.00772147
x1.vss.t167                        0.000597972
x1.vss.t166                        0.000597972
x1.vout.t26                            1.00813
x1.ibias.t39                          0.679811
x1.a_n1962_4406.t41                 0.00760995
x1.vss.t165                        0.000597972
x1.vss.t164                        0.000597972
x1.a_n1962_4406.t75                  0.0076984
x1.vss.t288                        0.000946863
x1.en.t23                                  1.8
x1.a_n1962_4406.t111                0.00756028
x1.a_n935_8875.t8                     0.592503
x1.vn.t7                                   0.9
x1.a_3329_8823.t46                    0.180122
x1.vss.t3                          0.000564774
x1.vdd.t81                             1.79861
x1.vdd.t80                             1.79886
x1.vss.t287                        0.000931976
x1.en.t24                                  1.8
x1.a_n1962_4406.t110                 0.0074788
x1.vss.t286                        0.000910964
x1.en.t25                                  1.8
x1.a_n1962_4406.t109                0.00747875
x1.vdd.t106                            1.79732
x1.a_n935_8875.t35                    0.592995
x1.a_n735_8972.t25                    0.594357
x1.vdd.t11                             1.79773
x1.a_n1962_4406.t40                 0.00771773
x1.ibias.t40                          0.679811
x1.vout.t58                            1.00813
x1.vss.t163                        0.000661817
x1.vss.t161                        0.000661817
x1.vss.t162                         0.00052344
x1.vdd.t25                              1.7985
x1.a_n735_8972.t35                     0.59309
x1.vout.t71                            1.01198
x1.vss.t160                        0.000597972
x1.vss.t158                        0.000597972
x1.vss.t159                        0.000597972
x1.a_n1962_4406.t108                0.00755691
x1.en.t26                                  1.8
x1.vss.t285                        0.000932298
x1.a_3329_8823.t27                    0.179264
x1.ibias.t41                          0.679811
x1.a_3868_4185.t28                  0.00774165
x1.a_n935_8875.t31                    0.594093
x1.a_n935_8875.t30                    0.593008
x1.vdd.t37                             1.79658
x1.a_n1962_4406.t39                 0.00771977
x1.ibias.t42                          0.679811
x1.vout.t13                            1.00812
x1.vout.t16                            1.00813
x1.ibias.t43                          0.679811
x1.a_n1962_4406.t38                 0.00760726
x1.a_n1962_4406.t37                 0.00761093
x1.ibias.t44                          0.679811
x1.vout.t22                            1.00814
x1.a_n1962_4406.t107                0.00755669
x1.en.t27                                  1.8
x1.vss.t284                        0.000911285
x1.a_3329_8823.t0                      0.17925
x1.ibias.t45                          0.679811
x1.a_3868_4185.t27                  0.00773936
x1.a_n735_8972.t18                    0.592869
x1.vp.t5                                   0.9
x1.a_3329_8823.t47                    0.180105
x1.vss.t157                        0.000661817
x1.vss.t155                        0.000661817
x1.a_n735_8972.t4                     0.592973
x1.vss.t156                        0.000533986
x1.vout.t73                             1.0121
x1.a_n735_8972.t36                     0.59309
x1.vdd.t27                             1.79758
x1.a_n1962_4406.t36                 0.00760779
x1.ibias.t46                          0.679811
x1.vout.t39                            1.00813
x1.a_n1962_4406.t106                 0.0075624
x1.en.t28                                  1.8
x1.vss.t280                        0.000938153
x1.vss.t281                        0.000931851
x1.en.t29                                  1.8
x1.a_n1962_4406.t105                0.00756294
x1.vss.t283                        0.000910927
x1.en.t30                                  1.8
x1.a_n1962_4406.t104                0.00756527
x1.vss.t282                        0.000367566
x1.en.t31                                  1.8
x1.a_8862_4192.t22                  0.00122027
x1.a_3329_8823.t53                    0.179977
x1.vss.t153                        0.000661817
x1.vss.t154                        0.000661817
x1.vss.t61                         0.000599608
x1.vout.t14                            1.00815
x1.ibias.t47                          0.679811
x1.a_n1962_4406.t35                 0.00760463
x1.vss.t152                        0.000597972
x1.vss.t151                        0.000597972
x1.a_n1962_4406.t74                 0.00750705
x1.vout.t17                            1.00818
x1.ibias.t48                          0.679811
x1.a_n1962_4406.t34                 0.00760449
x1.vss.t150                        0.000597972
x1.vss.t149                        0.000597972
x1.vss.t279                        0.000936148
x1.en.t32                                  1.8
x1.a_n1962_4406.t103                 0.0075632
x1.a_n1962_4406.t33                 0.00780966
x1.ibias.t49                          0.679811
x1.vout.t50                            1.00821
x1.a_3868_4185.t73                  0.00769534
x1.en.t33                                  1.8
x1.vss.t278                        0.000729729
x1.vss.t274                        0.000729027
x1.en.t34                                  1.8
x1.a_3868_4185.t72                  0.00763077
x1.vss.t277                        0.000721754
x1.en.t35                                  1.8
x1.a_3868_4185.t71                  0.00762875
x1.a_n935_8875.t29                    0.594103
x1.a_n935_8875.t28                    0.593019
x1.vdd.t29                             1.79714
x1.vdd.t79                             1.79863
x1.vdd.t78                             1.79888
x1.a_n1962_4406.t32                 0.00780881
x1.ibias.t50                          0.679811
x1.vout.t29                            1.00821
x1.a_8862_4192.t21                  0.00122017
x1.en.t36                                  1.8
x1.vss.t276                        0.000342422
x1.a_3868_4185.t70                  0.00769304
x1.en.t37                                  1.8
x1.vss.t275                        0.000725313
x1.vss.t148                        0.000406812
x1.vss.t147                        0.000406812
x1.a_3868_4185.t51                  0.00783807
x1.vdd.t22                             1.79656
x1.a_n935_8875.t26                    0.593019
x1.a_n935_8875.t27                    0.594103
x1.vdd.t0                              1.79773
x1.vout.t23                            1.00821
x1.ibias.t51                          0.679811
x1.a_n1962_4406.t31                 0.00780966
x1.vss.t273                        0.000729729
x1.en.t38                                  1.8
x1.a_3868_4185.t69                  0.00769537
x1.a_3868_4185.t50                  0.00765945
x1.vss.t145                        0.000406812
x1.vss.t146                        0.000406812
x1.vss.t144                        0.000322621
x1.vss.t142                        0.000322767
x1.vss.t143                         0.00033765
x1.a_3868_4185.t49                  0.00765745
x1.vss.t140                        0.000406812
x1.vss.t141                        0.000406812
x1.vss.t272                        0.000725313
x1.en.t39                                  1.8
x1.a_3868_4185.t68                  0.00769307
x1.vss.t271                        0.000940423
x1.en.t40                                  1.8
x1.a_n1962_4406.t102                0.00756035
x1.a_3868_4185.t26                   0.0078561
x1.ibias.t52                          0.679811
x1.a_3329_8823.t14                    0.179244
x1.a_3868_4185.t25                  0.00785501
x1.ibias.t53                          0.679811
x1.a_3329_8823.t24                    0.179255
x1.a_3329_8823.t67                    0.180086
x1.vn.t8                                   0.9
x1.a_n935_8875.t7                     0.592499
x1.vss.t217                        0.000554492
x1.a_3868_4185.t24                  0.00774168
x1.ibias.t54                          0.679811
x1.a_3329_8823.t34                    0.179265
x1.vdd.t77                             1.79861
x1.vdd.t76                             1.79887
x1.a_n1962_4406.t73                 0.00769652
x1.vss.t138                        0.000597972
x1.vss.t139                        0.000597972
x1.a_n1962_4406.t72                 0.00769737
x1.vss.t136                        0.000597972
x1.vss.t137                        0.000597972
x1.ibias.t3                           0.679692
x1.ibias.t2                           0.679803
x1.a_8862_4192.t2                   0.00145153
x1.vss.t216                        0.000335622
x1.vss.t270                        0.000340859
x1.en.t41                                  1.8
x1.a_8862_4192.t20                  0.00122061
x1.a_3868_4185.t23                  0.00773939
x1.ibias.t55                          0.679811
x1.a_3329_8823.t5                     0.179252
x1.a_3329_8823.t9                     0.179255
x1.ibias.t56                          0.679811
x1.a_3868_4185.t22                  0.00774013
x1.a_n1962_4406.t101                0.00755857
x1.en.t42                                  1.8
x1.vss.t269                        0.000927574
x1.a_n1962_4406.t100                0.00755929
x1.en.t43                                  1.8
x1.vss.t268                        0.000906559
x1.a_3329_8823.t13                    0.179244
x1.ibias.t57                          0.679811
x1.a_3868_4185.t21                  0.00773929
x1.vdd.t75                             1.79863
x1.vdd.t73                             1.79864
x1.vdd.t74                             1.79813
x1.vdd.t40                             1.79888
x1.vss.t267                        0.000357295
x1.en.t44                                  1.8
x1.a_8862_4192.t19                  0.00122043
x1.a_8862_4192.t18                  0.00122072
x1.en.t45                                  1.8
x1.vss.t266                         0.00036845
x1.vdd.t101                            1.79851
x1.a_n735_8972.t37                     0.59309
x1.vout.t83                            1.01207
x1.a_n1962_4406.t30                 0.00761207
x1.ibias.t58                          0.679811
x1.vout.t55                            1.00812
x1.a_8862_4192.t1                   0.00145153
x1.ibias.t0                           0.679801
x1.ibias.t1                           0.679598
x1.a_3329_8823.t1                     0.179235
x1.ibias.t59                          0.679811
x1.a_3868_4185.t20                  0.00785979
x1.vdd.t109                            1.79732
x1.a_n935_8875.t36                    0.593014
x1.a_n735_8972.t26                    0.594375
x1.a_8862_4192.t17                  0.00122034
x1.en.t46                                  1.8
x1.vss.t265                        0.000337709
x1.vss.t135                        0.000320152
x1.vss.t133                        0.000320048
x1.vss.t134                        0.000334725
x1.vout.t81                            1.01202
x1.a_n735_8972.t38                     0.59309
x1.vdd.t99                              1.7975
x1.vss.t128                        0.000406812
x1.vss.t127                        0.000406812
x1.a_3868_4185.t48                  0.00765467
x1.a_3868_4185.t47                  0.00784246
x1.vss.t131                        0.000406812
x1.vss.t132                        0.000406812
x1.a_n935_8875.t25                    0.594111
x1.a_n935_8875.t24                    0.593025
x1.vdd.t31                             1.79656
x1.a_3868_4185.t19                  0.00785976
x1.ibias.t60                          0.679811
x1.a_3329_8823.t25                    0.179231
x1.a_3329_8823.t52                    0.179973
x1.vss.t125                        0.000661817
x1.vss.t126                        0.000661817
x1.vss.t248                         0.00033812
x1.en.t47                                  1.8
x1.a_8862_4192.t16                  0.00121988
x1.a_3329_8823.t6                     0.179231
x1.ibias.t61                          0.679811
x1.a_3868_4185.t18                  0.00792886
x1.vdd.t72                             1.79862
x1.vdd.t70                             1.79888
x1.a_3868_4185.t67                  0.00769494
x1.en.t48                                  1.8
x1.vss.t264                        0.000708056
x1.vout.t63                            1.01209
x1.a_n735_8972.t39                     0.59309
x1.vdd.t14                             1.79755
x1.vout.t68                            1.01197
x1.a_n735_8972.t40                     0.59309
x1.vdd.t20                             1.79804
x1.vdd.t2                              1.79888
x1.a_n1962_4406.t99                 0.00755809
x1.en.t49                                  1.8
x1.vss.t263                         0.00091923
x1.a_8862_4192.t15                  0.00121996
x1.en.t50                                  1.8
x1.vss.t262                        0.000356371
x1.vss.t124                        0.000661817
x1.vss.t123                        0.000661817
x1.a_3329_8823.t51                    0.180005
x1.a_n1962_4406.t98                 0.00755867
x1.en.t51                                  1.8
x1.vss.t261                        0.000891438
x1.vdd.t69                             1.79861
x1.vdd.t67                             1.79861
x1.vdd.t68                             1.79811
x1.a_3329_8823.t58                    0.180028
x1.vp.t6                                   0.9
x1.a_n735_8972.t17                    0.592863
x1.vss.t122                        0.000597972
x1.vss.t121                        0.000597972
x1.a_n1962_4406.t71                 0.00769758
x1.a_3329_8823.t79                    0.180026
x1.vn.t9                                   0.9
x1.a_n935_8875.t6                     0.592502
x1.vout.t40                            1.00815
x1.ibias.t62                          0.679811
x1.a_n1962_4406.t29                 0.00771675
x1.a_n935_8875.t5                     0.592502
x1.vn.t10                                  0.9
x1.a_3329_8823.t70                    0.180089
x1.vdd.t66                             1.79863
x1.vdd.t64                             1.79863
x1.vdd.t65                             1.79812
x1.a_n735_8972.t5                     0.594373
x1.a_n935_8875.t37                    0.592995
x1.vdd.t28                             1.79715
x1.vout.t66                            1.01204
x1.a_n735_8972.t41                     0.59309
x1.vdd.t18                             1.79805
x1.vss.t120                        0.000597972
x1.vss.t119                        0.000597972
x1.a_n1962_4406.t97                 0.00748044
x1.en.t52                                  1.8
x1.vss.t260                        0.000938983
x1.a_n1962_4406.t28                 0.00760533
x1.ibias.t63                          0.679811
x1.vout.t15                            1.00815
x1.vss.t118                        0.000597972
x1.vss.t117                        0.000597972
x1.vdd.t4                              1.79658
x1.a_n935_8875.t38                    0.592999
x1.a_n735_8972.t0                     0.594373
x1.a_n735_8972.t16                    0.592863
x1.vp.t7                                   0.9
x1.a_3329_8823.t74                    0.180127
x1.a_3329_8823.t75                    0.180089
x1.vp.t8                                   0.9
x1.a_n735_8972.t15                    0.592855
x1.a_n1962_4406.t96                 0.00756525
x1.en.t53                                  1.8
x1.vss.t259                        0.000943501
x1.vdd.t63                             1.79862
x1.vdd.t61                             1.79862
x1.vdd.t62                             1.79812
x1.vss.t116                        0.000597972
x1.vss.t115                        0.000597972
x1.a_n1962_4406.t70                 0.00769962
x1.a_n1962_4406.t27                 0.00761023
x1.ibias.t64                          0.679811
x1.vout.t18                            1.00813
x1.vss.t258                        0.000939311
x1.en.t54                                  1.8
x1.a_n1962_4406.t95                 0.00756009
x1.vout.t10                            1.00814
x1.ibias.t65                          0.679811
x1.a_n1962_4406.t26                 0.00761012
x1.a_n735_8972.t14                    0.592861
x1.vp.t9                                   0.9
x1.a_3329_8823.t78                    0.180003
x1.a_3329_8823.t59                    0.180122
x1.vp.t10                                  0.9
x1.a_n735_8972.t13                    0.592861
x1.a_n735_8972.t12                    0.592855
x1.vp.t11                                  0.9
x1.a_3329_8823.t69                    0.179999
x1.a_n1962_4406.t69                 0.00750674
x1.vss.t113                        0.000597972
x1.vss.t114                        0.000597972
x1.vss.t257                        0.000938133
x1.en.t55                                  1.8
x1.a_n1962_4406.t94                 0.00755764
x1.a_n1962_4406.t68                 0.00769684
x1.vss.t111                        0.000597972
x1.vss.t112                        0.000597972
x1.vout.t51                            1.00812
x1.ibias.t66                          0.679811
x1.a_n1962_4406.t25                 0.00761296
x1.vout.t30                            1.00821
x1.ibias.t67                          0.679811
x1.a_n1962_4406.t24                 0.00780881
x1.vout.t24                            1.00821
x1.ibias.t68                          0.679811
x1.a_n1962_4406.t23                   0.007717
x1.vss.t256                        0.000368931
x1.en.t56                                  1.8
x1.a_8862_4192.t14                  0.00122165
x1.a_8862_4192.t13                  0.00122153
x1.en.t57                                  1.8
x1.vss.t255                         0.00034132
x1.vdd.t21                             1.79732
x1.a_n935_8875.t22                    0.593008
x1.a_n935_8875.t23                    0.594094
x1.a_3329_8823.t50                    0.179981
x1.vss.t109                        0.000661817
x1.vss.t110                        0.000661817
x1.vout.t56                            1.00812
x1.ibias.t69                          0.679811
x1.a_n1962_4406.t22                 0.00780512
x1.a_n1962_4406.t21                 0.00771766
x1.ibias.t70                          0.679811
x1.vout.t20                            1.00815
x1.a_3329_8823.t16                    0.179269
x1.ibias.t71                          0.679811
x1.a_3868_4185.t17                   0.0079288
x1.vss.t108                        0.000406812
x1.vss.t107                        0.000406812
x1.a_3868_4185.t46                  0.00783768
x1.vout.t79                            1.01205
x1.a_n735_8972.t42                     0.59309
x1.vdd.t38                             1.79751
x1.vout.t34                            1.00813
x1.ibias.t72                          0.679811
x1.a_n1962_4406.t20                  0.0076099
x1.a_n1962_4406.t19                 0.00771851
x1.ibias.t73                          0.679811
x1.vout.t11                            1.00817
x1.vss.t106                        0.000406812
x1.vss.t105                        0.000406812
x1.a_3868_4185.t45                  0.00783877
x1.vss.t104                        0.000661817
x1.vss.t101                        0.000661817
x1.vss.t103                        0.000661817
x1.vss.t102                        0.000603821
x1.a_n1962_4406.t18                  0.0076065
x1.ibias.t74                          0.679811
x1.vout.t31                            1.00814
x1.vss.t100                        0.000335719
x1.vss.t99                         0.000328355
x1.vss.t254                        0.000341042
x1.en.t58                                  1.8
x1.a_8862_4192.t12                  0.00122014
x1.vout.t8                             1.00815
x1.ibias.t75                          0.679811
x1.a_n1962_4406.t17                 0.00760632
x1.a_n1962_4406.t16                 0.00761247
x1.ibias.t76                          0.679811
x1.vout.t32                            1.00816
x1.a_n1962_4406.t15                 0.00761573
x1.ibias.t77                          0.679811
x1.vout.t4                             1.00819
x1.a_3868_4185.t16                  0.00792881
x1.ibias.t78                          0.679811
x1.a_3329_8823.t21                     0.17927
x1.vss.t98                         0.000327368
x1.vss.t97                         0.000327368
x1.ibias.t9                           0.679714
x1.a_n1962_4406.t93                 0.00756387
x1.en.t59                                  1.8
x1.vss.t253                        0.000921267
x1.vout.t19                            1.00817
x1.ibias.t79                          0.679811
x1.a_n1962_4406.t14                 0.00760713
x1.a_n1962_4406.t92                   0.007567
x1.en.t60                                  1.8
x1.vss.t252                        0.000893495
x1.a_3868_4185.t15                  0.00774159
x1.ibias.t80                          0.679811
x1.a_3329_8823.t36                    0.179264
x1.vss.t251                        0.000357782
x1.en.t61                                  1.8
x1.a_8862_4192.t11                  0.00122136
x1.vdd.t60                             1.79772
x1.vdd.t58                             1.79772
x1.vdd.t59                             1.79722
x1.a_n735_8972.t11                    0.592857
x1.vp.t12                                  0.9
x1.a_3329_8823.t40                    0.180077
x1.vss.t250                        0.000919257
x1.en.t62                                  1.8
x1.a_n1962_4406.t91                 0.00756466
x1.vss.t96                         0.000597972
x1.vss.t95                         0.000597972
x1.a_8862_4192.t10                  0.00122025
x1.en.t63                                  1.8
x1.vss.t249                        0.000367565
x1.a_3868_4185.t14                   0.0077393
x1.ibias.t81                          0.679811
x1.a_3329_8823.t32                     0.17925
x1.vss.t247                        0.000891476
x1.en.t64                                  1.8
x1.a_n1962_4406.t90                  0.0075678
x1.a_3329_8823.t23                     0.17927
x1.ibias.t82                          0.679811
x1.a_3868_4185.t13                  0.00792884
x1.a_8862_4192.t9                   0.00122128
x1.en.t65                                  1.8
x1.vss.t246                        0.000338406
x1.vss.t245                        0.000708784
x1.en.t66                                  1.8
x1.a_3868_4185.t66                  0.00762806
x1.a_n735_8972.t1                     0.594384
x1.a_n935_8875.t39                    0.593013
x1.vdd.t9                              1.79714
x1.vdd.t35                             1.79761
x1.a_n735_8972.t43                     0.59309
x1.vout.t76                            1.01206
x1.a_n1962_4406.t13                 0.00760805
x1.ibias.t83                          0.679811
x1.vout.t43                            1.00813
x1.a_3329_8823.t45                    0.180077
x1.vn.t11                                  0.9
x1.a_n935_8875.t4                     0.592499
x1.vout.t88                              1.012
x1.a_n735_8972.t44                     0.59309
x1.vdd.t108                            1.79804
x1.vss.t244                        0.000927574
x1.en.t67                                  1.8
x1.a_n1962_4406.t89                  0.0075584
x1.a_3868_4185.t12                  0.00792884
x1.ibias.t84                          0.679811
x1.a_3329_8823.t10                    0.179272
x1.vss.t94                         0.000406812
x1.vss.t93                         0.000406812
x1.a_3868_4185.t44                  0.00784243
x1.a_3868_4185.t43                  0.00765681
x1.vss.t91                         0.000406812
x1.vss.t92                         0.000406812
x1.a_3329_8823.t7                     0.179241
x1.ibias.t85                          0.679811
x1.a_3868_4185.t11                  0.00773995
x1.vdd.t10                             1.79656
x1.a_n935_8875.t40                    0.593016
x1.a_n735_8972.t2                     0.594384
x1.vss.t90                         0.000661817
x1.vss.t88                         0.000661817
x1.a_n935_8875.t17                    0.592629
x1.a_n935_8875.t3                     0.592499
x1.vn.t12                                  0.9
x1.a_3329_8823.t57                    0.179995
x1.vdd.t57                             1.79861
x1.vdd.t55                             1.79861
x1.vdd.t56                             1.79811
x1.vss.t243                        0.000906554
x1.en.t68                                  1.8
x1.a_n1962_4406.t88                 0.00755817
x1.a_3868_4185.t10                  0.00785867
x1.ibias.t86                          0.679811
x1.a_3329_8823.t3                     0.179236
x1.vss.t87                         0.000332978
x1.vss.t86                         0.000325597
x1.vss.t242                        0.000338691
x1.en.t69                                  1.8
x1.a_8862_4192.t8                   0.00122037
x1.a_3329_8823.t29                    0.179236
x1.ibias.t87                          0.679811
x1.a_3868_4185.t9                   0.00774133
x1.vout.t74                            1.01206
x1.a_n735_8972.t45                     0.59309
x1.vdd.t32                             1.79806
x1.a_3868_4185.t65                  0.00769359
x1.en.t70                                  1.8
x1.vss.t241                        0.000715231
x1.vdd.t102                             1.7975
x1.a_n735_8972.t46                     0.59309
x1.vout.t84                            1.01197
x1.a_8862_4192.t7                   0.00122044
x1.en.t71                                  1.8
x1.vss.t240                        0.000357295
x1.vss.t239                        0.000715231
x1.en.t72                                  1.8
x1.a_3868_4185.t64                  0.00769362
x1.vdd.t12                             1.79731
x1.a_n935_8875.t20                    0.593026
x1.a_n935_8875.t21                    0.594111
x1.a_n935_8875.t2                     0.592607
x1.vn.t13                                  0.9
x1.a_3329_8823.t68                     0.18013
x1.vdd.t54                             1.79742
x1.vdd.t53                             1.79767
x1.a_n935_8875.t16                     0.59263
x1.vss.t83                         0.000661817
x1.vss.t85                         0.000661817
x1.vss.t82                         0.000597972
x1.vss.t81                         0.000597972
x1.vout.t85                            1.01198
x1.a_n735_8972.t47                     0.59309
x1.vdd.t104                            1.79749
x1.vss.t80                         0.000597972
x1.vss.t79                         0.000597972
x1.a_n1962_4406.t67                 0.00750762
x1.a_3868_4185.t8                   0.00773998
x1.ibias.t88                          0.679811
x1.a_3329_8823.t26                    0.179242
x1.vss.t78                         0.000597972
x1.vss.t76                         0.000597972
x1.vdd.t107                            1.79755
x1.a_n735_8972.t48                     0.59309
x1.vout.t87                            1.01204
x1.a_n1962_4406.t66                 0.00769921
x1.vss.t74                         0.000597972
x1.vss.t75                         0.000597972
x1.vss.t73                         0.000661817
x1.vss.t71                         0.000661817
x1.vss.t72                         0.000661817
x1.vdd.t24                             1.79758
x1.a_n735_8972.t49                     0.59309
x1.vout.t70                            1.01205
x1.vss.t238                         0.00094349
x1.en.t73                                  1.8
x1.a_n1962_4406.t87                 0.00756253
x1.vss.t70                         0.000597972
x1.vss.t68                         0.000597972
x1.vss.t69                         0.000597972
x1.vout.t72                            1.01193
x1.a_n735_8972.t50                     0.59309
x1.vdd.t26                             1.79803
x1.vout.t41                            1.00813
x1.ibias.t89                          0.679811
x1.a_n1962_4406.t12                 0.00771936
x1.a_n1962_4406.t65                  0.0076974
x1.vss.t66                         0.000597972
x1.vss.t67                         0.000597972
x1.a_n1962_4406.t86                 0.00756317
x1.en.t74                                  1.8
x1.vss.t237                        0.000944614
x1.vss.t65                         0.000661817
x1.vss.t63                         0.000661817
x1.a_3329_8823.t49                    0.180006
x1.a_3329_8823.t48                     0.17998
x1.vss.t60                         0.000661817
x1.vss.t62                         0.000661817
x1.a_n1962_4406.t11                 0.00761002
x1.ibias.t90                          0.679811
x1.vout.t47                            1.00814
x1.vss.t59                         0.000597972
x1.vss.t58                         0.000597972
x1.a_n1962_4406.t64                  0.0076975
x1.vdd.t1                              1.79659
x1.a_n935_8875.t18                       0.593
x1.a_n935_8875.t19                    0.594084
x1.a_n735_8972.t10                    0.592857
x1.vp.t13                                  0.9
x1.a_3329_8823.t41                    0.180113
x1.a_n935_8875.t1                     0.592499
x1.vn.t14                                  0.9
x1.a_3329_8823.t72                    0.180061
x1.vss.t312                        0.000564901
x1.vdd.t52                             1.79861
x1.vdd.t50                             1.79861
x1.vdd.t51                             1.79811
x1.vout.t44                            1.00813
x1.ibias.t91                          0.679811
x1.a_n1962_4406.t10                 0.00761087
x1.vss.t57                         0.000597972
x1.vss.t55                         0.000597972
x1.a_n1962_4406.t63                 0.00769835
x1.a_3329_8823.t30                    0.179265
x1.ibias.t92                          0.679811
x1.a_3868_4185.t7                   0.00786329
x1.vdd.t49                             1.79773
x1.vdd.t46                             1.79773
x1.vdd.t48                             1.79722
x1.vout.t82                            1.01205
x1.a_n735_8972.t51                     0.59309
x1.vdd.t100                            1.79805
x1.vout.t36                            1.00817
x1.ibias.t93                          0.679811
x1.a_n1962_4406.t9                  0.00771667
x1.vout.t37                            1.00819
x1.ibias.t94                          0.679811
x1.a_n1962_4406.t8                  0.00771752
x1.a_3329_8823.t22                    0.179252
x1.ibias.t95                          0.679811
x1.a_3868_4185.t6                   0.00786064
x1.a_3329_8823.t60                    0.180061
x1.vp.t14                                  0.9
x1.a_n735_8972.t9                      0.59295
x1.vss.t213                        0.000575918
x1.a_n1962_4406.t85                 0.00747973
x1.en.t75                                  1.8
x1.vss.t236                        0.000930263
x1.a_9909_7861.t1                      0.59309
x1.vout.t78                            1.00959
x1.a_3868_4185.t42                  0.00784596
x1.vss.t53                         0.000406812
x1.vss.t54                         0.000406812
x1.vout.t80                            1.01207
x1.a_n735_8972.t52                     0.59309
x1.vdd.t98                             1.79753
x1.a_n1962_4406.t7                  0.00760432
x1.ibias.t96                          0.679811
x1.vout.t12                            1.00817
x1.a_n1962_4406.t6                  0.00760502
x1.ibias.t97                          0.679811
x1.vout.t5                             1.00819
x1.a_3868_4185.t63                  0.00762411
x1.en.t76                                  1.8
x1.vss.t235                        0.000726052
x1.vss.t234                        0.000728223
x1.en.t77                                  1.8
x1.a_3868_4185.t62                  0.00769384
x1.vss.t233                        0.000720973
x1.en.t78                                  1.8
x1.a_3868_4185.t61                  0.00769297
x1.a_3868_4185.t41                  0.00784331
x1.vss.t50                         0.000406812
x1.vss.t52                         0.000406812
x1.a_n735_8972.t6                     0.594356
x1.a_n935_8875.t41                    0.592995
x1.vdd.t34                             1.79659
x1.a_n735_8972.t3                     0.592972
x1.vss.t47                         0.000661817
x1.vss.t49                         0.000661817
x1.vss.t48                         0.000587443
x1.a_n1962_4406.t84                 0.00756083
x1.en.t79                                  1.8
x1.vss.t223                        0.000941391
x1.vss.t232                        0.000930589
x1.en.t80                                  1.8
x1.a_n1962_4406.t83                 0.00755876
x1.vout.t1                             1.00816
x1.ibias.t98                          0.679811
x1.a_n1962_4406.t5                  0.00761166
x1.vss.t46                         0.000597972
x1.vss.t44                         0.000597972
x1.vss.t43                         0.000335903
x1.vss.t42                         0.000328531
x1.a_3868_4185.t60                  0.00762436
x1.en.t81                                  1.8
x1.vss.t231                         0.00072169
x1.a_3329_8823.t76                    0.180103
x1.vp.t15                                  0.9
x1.a_n735_8972.t8                     0.592861
x1.a_n1962_4406.t62                   0.007506
x1.vss.t40                         0.000597972
x1.vss.t41                         0.000597972
x1.vss.t228                        0.000921237
x1.en.t82                                  1.8
x1.a_n1962_4406.t82                 0.00755655
x1.vout.t7                             1.00819
x1.ibias.t99                          0.679811
x1.a_n1962_4406.t4                  0.00761493
x1.a_n1962_4406.t61                 0.00750604
x1.vss.t37                         0.000597972
x1.vss.t39                         0.000597972
x1.vss.t230                        0.000893454
x1.en.t83                                  1.8
x1.a_n1962_4406.t81                 0.00755713
x1.vss.t229                        0.000726345
x1.en.t84                                  1.8
x1.a_3868_4185.t59                  0.00769527
x1.vss.t227                        0.000340599
x1.en.t85                                  1.8
x1.a_8862_4192.t6                   0.00122152
x1.vss.t226                        0.000721973
x1.en.t86                                  1.8
x1.a_3868_4185.t58                  0.00769297
x1.vss.t36                         0.000597972
x1.vss.t35                         0.000597972
x1.a_3868_4185.t5                   0.00774015
x1.ibias.t100                         0.679811
x1.a_3329_8823.t15                    0.179256
x1.a_3868_4185.t4                    0.0077393
x1.ibias.t101                         0.679811
x1.a_3329_8823.t37                    0.179245
x1.a_n1962_4406.t3                  0.00780512
x1.ibias.t102                         0.679811
x1.vout.t48                            1.00812
x1.a_8862_4192.t5                   0.00122164
x1.en.t87                                  1.8
x1.vss.t225                        0.000368931
x1.vout.t60                            1.01202
x1.a_n735_8972.t53                     0.59309
x1.vdd.t3                              1.79804
x1.vdd.t6                              1.79751
x1.a_n735_8972.t54                     0.59309
x1.vout.t61                              1.012
x1.a_n1962_4406.t80                 0.00756221
x1.en.t88                                  1.8
x1.vss.t224                        0.000944884
x1.a_3329_8823.t33                    0.179256
x1.ibias.t103                         0.679811
x1.a_3868_4185.t3                   0.00774019
x1.ibias.t8                           0.679709
x1.vss.t33                         0.000321407
x1.vss.t34                         0.000321407
x1.vss.t32                         0.000323345
x1.vss.t29                         0.000323397
x1.vss.t31                         0.000338162
x1.vout.t33                            1.00814
x1.ibias.t104                         0.679811
x1.a_n1962_4406.t2                   0.0076069
x1.a_3329_8823.t20                    0.179245
x1.ibias.t105                         0.679811
x1.a_3868_4185.t2                   0.00773934
x1.vss.t28                         0.000406812
x1.vss.t26                         0.000406812
x1.a_3868_4185.t40                  0.00784134
x1.vdd.t45                             1.79742
x1.vdd.t43                             1.79767
x1.vdd.t42                             1.79862
x1.vdd.t39                             1.79862
x1.vdd.t41                             1.79811
x1.a_3868_4185.t1                   0.00792879
x1.ibias.t106                         0.679811
x1.a_3329_8823.t31                    0.179269
x1.a_3868_4185.t57                  0.00769389
x1.en.t89                                  1.8
x1.vss.t222                        0.000729287
x1.a_3329_8823.t19                    0.179232
x1.ibias.t107                         0.679811
x1.a_3868_4185.t0                   0.00792886
x1.a_3868_4185.t56                  0.00769301
x1.en.t90                                  1.8
x1.vss.t221                        0.000722018
x1.a_n1962_4406.t1                  0.00760643
x1.ibias.t108                         0.679811
x1.vout.t27                            1.00816
x1.vss.t25                         0.000597972
x1.vss.t24                         0.000597972
x1.a_n1962_4406.t60                 0.00769845
x1.vss.t23                         0.000333545
x1.vss.t21                         0.000326164
x1.vss.t220                         0.00033916
x1.en.t91                                  1.8
x1.a_8862_4192.t4                    0.0012213
x1.a_n935_8875.t0                     0.592498
x1.vn.t15                                  0.9
x1.a_3329_8823.t44                    0.180102
x1.a_n1962_4406.t0                  0.00771893
x1.ibias.t109                         0.679811
x1.vout.t59                            1.00819
x1.en.n0                                   1.8
x1.en.n3                                   1.8
x1.en.n7                                   1.8
x1.en.n11                                  1.8
x1.en.n15                                  1.8
x1.en.n38                                  1.8
x1.en.n41                                  1.8
x1.en.n44                                  1.8
x1.en.n50                                  1.8
x1.en.n56                                  1.8
x1.en.n62                                  1.8
x1.en.n68                                  1.8
x1.en.n74                                  1.8
x1.en.n80                                  1.8
x1.en.n19                                  1.8
x1.en.n22                                  1.8
x1.en.n26                                  1.8
x1.en.n30                                  1.8
x1.en.n34                                  1.8
x1.en.n87                                  1.8
x1.en.n89                                  1.8
x1.en.n88                                  1.8
x1.en.n2                                   1.8
x1.en.n1                                   1.8
x1.en.n5                                   1.8
x1.en.n4                                   1.8
x1.en.n9                                   1.8
x1.en.n8                                   1.8
x1.en.n13                                  1.8
x1.en.n12                                  1.8
x1.en.n17                                  1.8
x1.en.n16                                  1.8
x1.en.n39                                  1.8
x1.en.n40                                  1.8
x1.en.n42                                  1.8
x1.en.n43                                  1.8
x1.en.n45                                  1.8
x1.en.n46                                  1.8
x1.en.n47                                  1.8
x1.en.n48                                  1.8
x1.en.n51                                  1.8
x1.en.n52                                  1.8
x1.en.n53                                  1.8
x1.en.n54                                  1.8
x1.en.n57                                  1.8
x1.en.n58                                  1.8
x1.en.n59                                  1.8
x1.en.n60                                  1.8
x1.en.n63                                  1.8
x1.en.n64                                  1.8
x1.en.n65                                  1.8
x1.en.n66                                  1.8
x1.en.n69                                  1.8
x1.en.n70                                  1.8
x1.en.n71                                  1.8
x1.en.n72                                  1.8
x1.en.n75                                  1.8
x1.en.n76                                  1.8
x1.en.n77                                  1.8
x1.en.n78                                  1.8
x1.en.n81                                  1.8
x1.en.n82                                  1.8
x1.en.n20                                  1.8
x1.en.n21                                  1.8
x1.en.n23                                  1.8
x1.en.n24                                  1.8
x1.en.n27                                  1.8
x1.en.n28                                  1.8
x1.en.n31                                  1.8
x1.en.n32                                  1.8
x1.en.n35                                  1.8
x1.en.n36                                  1.8
x1.en.n84                                  1.8
x1.en.n83                                  1.8
x1.en.n90                                  1.8
x1.en.n49                                  1.8
x1.en.n25                                  1.8
x1.en.n29                                  1.8
x1.en.n37                                  1.8
x1.en.n6                                   1.8
x1.en.n61                                  1.8
x1.en.n73                                  1.8
x1.en.n10                                  1.8
x1.en.n14                                  1.8
x1.en.n18                                  1.8
x1.en.n33                                  1.8
x1.en.n55                                  1.8
x1.en.n67                                  1.8
x1.en.n79                                  1.8
x1.en.n86                                  1.8
x1.en.n85                                  1.8
x1.vss.n1977                       0.000541669
x1.vss.n1888                        0.00032923
x1.vss.n2092                       0.000614291
x1.vss.n1496                       0.000600727
x1.vss.n2383                       0.000329382
x1.vss.n123                        0.000328156
x1.vss.n1376                       0.000600702
x1.vss.n719                        0.000600715
x1.vss.n1211                       0.000600154
x1.vss.n825                        0.000599962
x1.vss.n2192                       0.000526068
x1.vss.n243                        0.000522005
x1.vss.n2109                       0.000621463
x1.vss.n668                        0.000631532
x1.vss.n2129                       0.000575086
x1.vss.n317                        0.000579703
x1.vss.n661                        0.000579672
x1.vss.n314                        0.000575039
x1.vss.n2337                       0.000352763
x1.vss.n165                        0.000355238
x1.vss.n1494                       0.000600715
x1.vss.n722                        0.000600703
x1.vss.n1905                       0.000545665
x1.vss.n1529                        0.00055022
x1.vss.n187                        0.000355112
x1.vss.n167                        0.000352641
x1.vss.n2224                       0.000457978
x1.vss.n213                        0.000451179
x1.vss.n590                        0.000435604
x1.vss.n211                        0.000447123
x1.vss.n1207                       0.000600932
x1.vss.n826                        0.000601085
x1.vss.n2090                        0.00060869
x1.vss.n1499                       0.000602587
x1.vss.n1886                       0.000328883
x1.vss.n1534                       0.000328688
x1.vss.n1879                       0.000328883
x1.vss.n1878                       0.000328688
x1.vss.n1639                       0.000330491
x1.vss.n127                        0.000331717
x1.vss.n524                        0.000444655
x1.vss.n523                        0.000445037
x1.vss.n568                        0.000440633
x1.vss.n567                        0.000441379
x1.vss.n1663                       0.000329132
x1.vss.n1662                       0.000329212
x1.vss.n1707                       0.000328422
x1.vss.n1706                       0.000328544
x1.vss.n2335                       0.000357564
x1.vss.n2226                       0.000443647
x1.vss.n164                        0.000353393
x1.vss.n2333                       0.000355662
x1.vss.n2332                       0.000353955
x1.vss.n2331                       0.000354442
x1.vss.n2227                       0.000355955
x1.vss.n2330                       0.000354863
x1.vss.n2329                       0.000356184
x1.vss.n2328                       0.000355226
x1.vss.n2327                       0.000356374
x1.vss.n2326                       0.000356534
x1.vss.n2325                       0.000355539
x1.vss.n2324                       0.000355809
x1.vss.n2323                       0.000356672
x1.vss.n2322                        0.00035679
x1.vss.n2321                        0.00035604
x1.vss.n2320                       0.000356239
x1.vss.n2319                       0.000356891
x1.vss.n2318                       0.000356977
x1.vss.n2317                        0.00035641
x1.vss.n2316                       0.000356555
x1.vss.n2315                       0.000357051
x1.vss.n2314                       0.000357114
x1.vss.n2313                       0.000356679
x1.vss.n2312                       0.000356784
x1.vss.n2311                       0.000357167
x1.vss.n2310                       0.000357212
x1.vss.n2309                       0.000356871
x1.vss.n2308                       0.000356944
x1.vss.n2307                       0.000357249
x1.vss.n2306                       0.000357279
x1.vss.n2305                       0.000357004
x1.vss.n2304                       0.000357052
x1.vss.n2303                       0.000357304
x1.vss.n2302                       0.000357322
x1.vss.n2301                       0.000357088
x1.vss.n2300                       0.000357115
x1.vss.n2299                       0.000357336
x1.vss.n2298                       0.000357344
x1.vss.n2297                       0.000357132
x1.vss.n2296                       0.000357139
x1.vss.n2295                       0.000357348
x1.vss.n2294                       0.000357347
x1.vss.n2293                       0.000357137
x1.vss.n2292                       0.000357126
x1.vss.n2291                       0.000357342
x1.vss.n2290                       0.000357331
x1.vss.n2289                       0.000357106
x1.vss.n2288                       0.000357076
x1.vss.n2287                       0.000357316
x1.vss.n2286                       0.000357295
x1.vss.n2285                       0.000357035
x1.vss.n2284                       0.000356983
x1.vss.n2283                       0.000357269
x1.vss.n2282                       0.000357236
x1.vss.n2281                       0.000356919
x1.vss.n2280                        0.00035684
x1.vss.n2279                       0.000357196
x1.vss.n2278                       0.000357149
x1.vss.n2277                       0.000356746
x1.vss.n2276                       0.000356635
x1.vss.n2275                       0.000357092
x1.vss.n2274                       0.000357025
x1.vss.n2273                       0.000356503
x1.vss.n2272                       0.000356349
x1.vss.n2271                       0.000356947
x1.vss.n2270                       0.000356855
x1.vss.n2269                       0.000356168
x1.vss.n2268                       0.000355958
x1.vss.n2267                       0.000356748
x1.vss.n2266                       0.000356623
x1.vss.n2265                       0.000355713
x1.vss.n2264                       0.000355428
x1.vss.n2263                       0.000356478
x1.vss.n2262                       0.000356308
x1.vss.n2261                       0.000355097
x1.vss.n2260                       0.000354713
x1.vss.n2259                       0.000356108
x1.vss.n2258                       0.000355866
x1.vss.n2257                       0.000354268
x1.vss.n2256                       0.000353753
x1.vss.n2255                       0.000355557
x1.vss.n2254                        0.00035316
x1.vss.n2253                       0.000351012
x1.vss.n2336                       0.000354603
x1.vss.n2252                       0.000350262
x1.vss.n2251                       0.000351635
x1.vss.n166                        0.000353092
x1.vss.n2250                       0.000349451
x1.vss.n162                        0.000350572
x1.vss.n2342                       0.000351703
x1.vss.n2249                       0.000348591
x1.vss.n161                        0.000349503
x1.vss.n2343                       0.000350405
x1.vss.n2248                       0.000347692
x1.vss.n160                         0.00034844
x1.vss.n2344                       0.000349177
x1.vss.n2247                       0.000346759
x1.vss.n2246                       0.000347386
x1.vss.n159                        0.000348003
x1.vss.n2245                         0.0003458
x1.vss.n155                        0.000346339
x1.vss.n2350                       0.000346871
x1.vss.n2244                       0.000344816
x1.vss.n154                        0.000345296
x1.vss.n2351                       0.000345772
x1.vss.n2243                       0.000343812
x1.vss.n153                        0.000344255
x1.vss.n2352                       0.000344698
x1.vss.n2242                       0.000342788
x1.vss.n2241                       0.000343215
x1.vss.n152                        0.000343645
x1.vss.n2240                       0.000341746
x1.vss.n148                        0.000342174
x1.vss.n2358                       0.000342607
x1.vss.n2239                       0.000340685
x1.vss.n147                         0.00034113
x1.vss.n2359                       0.000341582
x1.vss.n2238                       0.000339604
x1.vss.n146                        0.000340081
x1.vss.n2360                       0.000340567
x1.vss.n2237                       0.000338502
x1.vss.n2236                       0.000339026
x1.vss.n145                         0.00033956
x1.vss.n2235                       0.000337378
x1.vss.n141                        0.000337963
x1.vss.n2366                       0.000338562
x1.vss.n2234                       0.000336228
x1.vss.n140                        0.000336891
x1.vss.n2367                        0.00033757
x1.vss.n2233                       0.000335049
x1.vss.n139                        0.000335808
x1.vss.n2368                       0.000336585
x1.vss.n2232                       0.000333837
x1.vss.n2231                       0.000334712
x1.vss.n135                        0.000335607
x1.vss.n2230                       0.000332586
x1.vss.n134                        0.000333604
x1.vss.n2374                       0.000334637
x1.vss.n2229                       0.000331291
x1.vss.n133                        0.000332484
x1.vss.n2375                       0.000333676
x1.vss.n2228                       0.000329944
x1.vss.n132                        0.000331365
x1.vss.n2376                       0.000332725
x1.vss.n124                        0.000330288
x1.vss.n122                        0.000328535
x1.vss.n126                        0.000331786
x1.vss.n2384                       0.000327049
x1.vss.n2382                       0.000330856
x1.vss.n121                        0.000326953
x1.vss.n1715                       0.000328131
x1.vss.n1714                       0.000327219
x1.vss.n1713                       0.000327445
x1.vss.n1638                       0.000328193
x1.vss.n1712                       0.000327639
x1.vss.n1711                       0.000328274
x1.vss.n1710                       0.000328352
x1.vss.n1709                       0.000327804
x1.vss.n1708                       0.000327946
x1.vss.n1705                       0.000328188
x1.vss.n1704                       0.000328293
x1.vss.n1703                       0.000328598
x1.vss.n1702                       0.000328644
x1.vss.n1701                       0.000328384
x1.vss.n1700                       0.000328465
x1.vss.n1699                       0.000328685
x1.vss.n1698                       0.000328721
x1.vss.n1697                       0.000328536
x1.vss.n1696                       0.000328598
x1.vss.n1695                       0.000328753
x1.vss.n1694                       0.000328781
x1.vss.n1693                       0.000328654
x1.vss.n1692                       0.000328705
x1.vss.n1691                       0.000328807
x1.vss.n1690                        0.00032883
x1.vss.n1689                       0.000328751
x1.vss.n1688                       0.000328793
x1.vss.n1687                       0.000328852
x1.vss.n1686                       0.000328872
x1.vss.n1685                       0.000328833
x1.vss.n1684                       0.000328871
x1.vss.n1683                       0.000328891
x1.vss.n1682                        0.00032891
x1.vss.n1681                       0.000328909
x1.vss.n1680                       0.000328946
x1.vss.n1679                       0.000328929
x1.vss.n1678                       0.000328949
x1.vss.n1677                       0.000328984
x1.vss.n1676                       0.000329023
x1.vss.n1675                       0.000328969
x1.vss.n1674                        0.00032899
x1.vss.n1673                       0.000329065
x1.vss.n1672                        0.00032911
x1.vss.n1671                       0.000329013
x1.vss.n1670                       0.000329038
x1.vss.n1669                        0.00032916
x1.vss.n1668                       0.000329215
x1.vss.n1667                       0.000329066
x1.vss.n1666                       0.000329097
x1.vss.n1665                       0.000329276
x1.vss.n1664                       0.000329345
x1.vss.n1661                       0.000329502
x1.vss.n1660                       0.000329593
x1.vss.n1659                       0.000329258
x1.vss.n1658                       0.000329312
x1.vss.n1657                       0.000329699
x1.vss.n1656                       0.000329821
x1.vss.n1655                       0.000329374
x1.vss.n1654                       0.000329447
x1.vss.n1653                       0.000329964
x1.vss.n1652                       0.000330129
x1.vss.n1651                        0.00032953
x1.vss.n1650                       0.000329628
x1.vss.n1649                        0.00033032
x1.vss.n1648                       0.000330541
x1.vss.n1647                       0.000329741
x1.vss.n1646                       0.000329873
x1.vss.n1645                       0.000330797
x1.vss.n1644                       0.000331094
x1.vss.n1643                       0.000330031
x1.vss.n1642                       0.000330226
x1.vss.n1641                       0.000331437
x1.vss.n1640                       0.000331834
x1.vss.n129                        0.000333152
x1.vss.n1718                       0.000329992
x1.vss.n2381                       0.000332337
x1.vss.n2380                        0.00033367
x1.vss.n2379                       0.000334246
x1.vss.n128                        0.000333055
x1.vss.n2378                       0.000334874
x1.vss.n2377                       0.000333826
x1.vss.n131                        0.000334633
x1.vss.n130                        0.000335548
x1.vss.n2373                       0.000335467
x1.vss.n2372                       0.000336262
x1.vss.n2371                       0.000337012
x1.vss.n136                        0.000336324
x1.vss.n2370                       0.000337791
x1.vss.n2369                         0.0003372
x1.vss.n138                        0.000338094
x1.vss.n137                        0.000338596
x1.vss.n2365                       0.000339002
x1.vss.n2364                       0.000339423
x1.vss.n2363                       0.000340268
x1.vss.n142                        0.000339923
x1.vss.n2362                       0.000341128
x1.vss.n2361                       0.000340855
x1.vss.n144                        0.000341798
x1.vss.n143                        0.000342001
x1.vss.n2357                       0.000342751
x1.vss.n2356                       0.000342882
x1.vss.n2355                       0.000343769
x1.vss.n149                        0.000343714
x1.vss.n2354                       0.000344658
x1.vss.n2353                       0.000344685
x1.vss.n151                        0.000345667
x1.vss.n150                        0.000345547
x1.vss.n2349                       0.000346659
x1.vss.n2348                       0.000346429
x1.vss.n2347                       0.000347302
x1.vss.n156                        0.000347662
x1.vss.n2346                       0.000348159
x1.vss.n2345                       0.000348678
x1.vss.n158                        0.000349707
x1.vss.n157                        0.000348994
x1.vss.n2341                       0.000350747
x1.vss.n2340                       0.000349797
x1.vss.n2339                       0.000350559
x1.vss.n163                        0.000351783
x1.vss.n2338                       0.000351267
x1.vss.n1785                       0.000325487
x1.vss.n1617                       0.000326788
x1.vss.n1616                       0.000327887
x1.vss.n1784                       0.000325469
x1.vss.n1783                       0.000326825
x1.vss.n1782                       0.000328036
x1.vss.n1779                       0.000326934
x1.vss.n1778                       0.000325486
x1.vss.n1780                       0.000328733
x1.vss.n1777                        0.00032551
x1.vss.n1720                       0.000327044
x1.vss.n1719                       0.000329522
x1.vss.n1776                       0.000325528
x1.vss.n1775                       0.000327101
x1.vss.n125                        0.000330351
x1.vss.n1536                       0.000328504
x1.vss.n1531                       0.000328903
x1.vss.n1877                       0.000328601
x1.vss.n1538                       0.000328464
x1.vss.n1876                       0.000328736
x1.vss.n1721                       0.000328418
x1.vss.n1537                       0.000328516
x1.vss.n1539                       0.000328604
x1.vss.n1722                       0.000328368
x1.vss.n1543                       0.000328436
x1.vss.n1870                       0.000328495
x1.vss.n1723                       0.000328315
x1.vss.n1544                       0.000328362
x1.vss.n1869                       0.000328402
x1.vss.n1724                        0.00032826
x1.vss.n1545                       0.000328292
x1.vss.n1868                        0.00032832
x1.vss.n1726                       0.000328204
x1.vss.n1725                       0.000328226
x1.vss.n1546                       0.000328245
x1.vss.n1727                       0.000328147
x1.vss.n1550                       0.000328162
x1.vss.n1862                       0.000328174
x1.vss.n1728                       0.000328089
x1.vss.n1551                       0.000328099
x1.vss.n1861                       0.000328108
x1.vss.n1729                        0.00032803
x1.vss.n1552                       0.000328037
x1.vss.n1860                       0.000328043
x1.vss.n1731                       0.000327971
x1.vss.n1730                       0.000327976
x1.vss.n1553                        0.00032798
x1.vss.n1732                       0.000327912
x1.vss.n1557                       0.000327916
x1.vss.n1854                       0.000327918
x1.vss.n1733                       0.000327853
x1.vss.n1558                       0.000327855
x1.vss.n1853                       0.000327857
x1.vss.n1734                       0.000327794
x1.vss.n1559                       0.000327795
x1.vss.n1852                       0.000327797
x1.vss.n1736                       0.000327735
x1.vss.n1735                       0.000327736
x1.vss.n1560                       0.000327736
x1.vss.n1737                       0.000327675
x1.vss.n1564                       0.000327676
x1.vss.n1846                       0.000327676
x1.vss.n1738                       0.000327616
x1.vss.n1565                       0.000327616
x1.vss.n1845                       0.000327616
x1.vss.n1739                       0.000327556
x1.vss.n1566                       0.000327557
x1.vss.n1844                       0.000327557
x1.vss.n1741                       0.000327497
x1.vss.n1740                       0.000327497
x1.vss.n1567                       0.000327497
x1.vss.n1742                       0.000327438
x1.vss.n1571                       0.000327438
x1.vss.n1838                       0.000327438
x1.vss.n1743                       0.000327378
x1.vss.n1572                       0.000327378
x1.vss.n1837                       0.000327378
x1.vss.n1744                       0.000327319
x1.vss.n1573                       0.000327319
x1.vss.n1836                       0.000327318
x1.vss.n1746                       0.000327259
x1.vss.n1745                       0.000327259
[...]
x1.a_3868_4185.n27                  0.00777295
x1.a_3868_4185.n26                  0.00791156
x1.a_3868_4185.n45                  0.00772431
x1.a_3868_4185.n48                  0.00776913
x1.a_3868_4185.n47                  0.00772282
x1.a_3868_4185.n50                  0.00776838
x1.a_3868_4185.n49                  0.00772202
x1.a_3868_4185.n52                  0.00776839
x1.a_3868_4185.n51                  0.00772197
x1.a_3868_4185.n54                  0.00776915
x1.a_3868_4185.n53                  0.00772261
x1.a_3868_4185.n56                  0.00777067
x1.a_3868_4185.n55                    0.007724
x1.a_3868_4185.n58                  0.00777295
x1.a_3868_4185.n57                  0.00791159
x1.a_3868_4185.n60                  0.00784596
x1.a_3868_4185.n63                  0.00777429
x1.a_3868_4185.n62                  0.00765945
x1.a_3868_4185.n65                   0.0077739
x1.a_3868_4185.n64                  0.00784331
x1.a_3868_4185.n67                  0.00777237
x1.a_3868_4185.n66                  0.00765745
x1.a_3868_4185.n69                  0.00777273
x1.a_3868_4185.n68                  0.00784214
x1.a_3868_4185.n71                  0.00777194
x1.a_3868_4185.n70                  0.00765681
x1.a_3868_4185.n73                  0.00777304
x1.a_3868_4185.n72                  0.00784246
x1.a_3868_4185.n77                  0.00791156
x1.a_3868_4185.n76                  0.00777294
x1.a_3868_4185.n43                  0.00777297
x1.a_3868_4185.n74                  0.00777297
x1.a_3868_4185.n75                  0.00777295
x1.vout.n15                            1.01097
x1.vout.n13                            1.01198
x1.vout.n2                             1.01102
x1.vout.n0                             1.01204
x1.vout.n1                             1.01203
x1.vout.n4                             1.01101
x1.vout.n3                             1.01202
x1.vout.n6                             1.01099
x1.vout.n5                               1.012
x1.vout.n8                             1.01097
x1.vout.n7                             1.01198
x1.vout.n10                            1.01094
x1.vout.n9                             1.01195
x1.vout.n12                             1.0109
x1.vout.n11                            1.01191
x1.vout.n14                            1.01198
x1.vout.n17                            1.01096
x1.vout.n16                            1.01197
x1.vout.n19                            1.01094
x1.vout.n18                            1.01195
x1.vout.n21                            1.01092
x1.vout.n20                            1.01193
x1.vout.n23                            1.01089
x1.vout.n22                             1.0119
x1.vout.n25                            1.01085
x1.vout.n24                            1.01186
x1.vout.n68                            1.00832
x1.vout.n66                            1.00814
x1.vout.n63                            1.00833
x1.vout.n61                            1.00815
x1.vout.n58                            1.00833
x1.vout.n56                            1.00815
x1.vout.n53                            1.00834
x1.vout.n51                            1.00816
x1.vout.n48                            1.00835
x1.vout.n46                            1.00817
x1.vout.n43                            1.00836
x1.vout.n41                            1.00818
x1.vout.n38                            1.00837
x1.vout.n36                            1.00819
x1.vout.n33                            1.00839
x1.vout.n31                            1.00821
x1.vout.n73                            1.00832
x1.vout.n71                            1.00814
x1.vout.n28                             1.0084
x1.vout.n26                            1.00823
x1.vout.n75                            1.00832
x1.vout.n74                            1.00814
x1.vout.n72                            1.00814
x1.vout.n70                            1.00832
x1.vout.n69                            1.00815
x1.vout.n67                            1.00814
x1.vout.n65                            1.00833
x1.vout.n64                            1.00815
x1.vout.n62                            1.00815
x1.vout.n60                            1.00833
x1.vout.n59                            1.00816
x1.vout.n57                            1.00815
x1.vout.n55                            1.00834
x1.vout.n54                            1.00817
x1.vout.n52                            1.00816
x1.vout.n50                            1.00835
x1.vout.n49                            1.00817
x1.vout.n47                            1.00817
x1.vout.n45                            1.00836
x1.vout.n44                            1.00819
x1.vout.n42                            1.00818
x1.vout.n40                            1.00837
x1.vout.n39                             1.0082
x1.vout.n37                            1.00819
x1.vout.n35                            1.00839
x1.vout.n34                            1.00821
x1.vout.n32                            1.00821
x1.vout.n30                             1.0084
x1.vout.n29                            1.00823
x1.vout.n27                            1.00823
x1.vout.n86                             1.0108
x1.vout.n85                            1.00959
x1.vout.n84                            1.00841
x1.vout.n87                            1.01085
x1.vout.n76                            1.00833
x1.vout.n78                            1.00834
x1.vout.n80                            1.00835
x1.vout.n82                            1.00838
x1.vout.n77                            1.00833
x1.vout.n79                            1.00835
x1.vout.n81                            1.00837
x1.vout.n83                            1.00839
x1.a_n1962_4406.n21                 0.00761928
x1.a_n1962_4406.n19                 0.00770132
x1.a_n1962_4406.n115                0.00761642
x1.a_n1962_4406.n113                0.00769845
x1.a_n1962_4406.n2                   0.0076212
x1.a_n1962_4406.n0                    0.007785
x1.a_n1962_4406.n8                  0.00762575
x1.a_n1962_4406.n6                  0.00778954
x1.a_n1962_4406.n58                  0.0076249
x1.a_n1962_4406.n56                 0.00778869
x1.a_n1962_4406.n25                 0.00761481
x1.a_n1962_4406.n23                 0.00769684
x1.a_n1962_4406.n39                 0.00761533
x1.a_n1962_4406.n37                 0.00769737
x1.a_n1962_4406.n5                  0.00762206
x1.a_n1962_4406.n3                  0.00778586
x1.a_n1962_4406.n98                 0.00761674
x1.a_n1962_4406.n96                 0.00769878
x1.a_n1962_4406.n79                 0.00761759
x1.a_n1962_4406.n77                 0.00769962
x1.a_n1962_4406.n83                 0.00761632
x1.a_n1962_4406.n81                 0.00769835
x1.a_n1962_4406.n48                 0.00761605
x1.a_n1962_4406.n36                  0.0076974
x1.a_n1962_4406.n52                 0.00761798
x1.a_n1962_4406.n22                 0.00769921
x1.a_n1962_4406.n92                 0.00761719
x1.a_n1962_4406.n80                  0.0076984
x1.a_n1962_4406.n110                0.00761711
x1.a_n1962_4406.n109                0.00758785
x1.a_n1962_4406.n112                0.00761601
x1.a_n1962_4406.n111                 0.0075867
x1.a_n1962_4406.n119                0.00761525
x1.a_n1962_4406.n118                0.00758567
x1.a_n1962_4406.n117                0.00761559
x1.a_n1962_4406.n116                 0.0075858
x1.a_n1962_4406.n114                0.00758637
x1.a_n1962_4406.n76                 0.00761892
x1.a_n1962_4406.n75                  0.0075897
x1.a_n1962_4406.n1                  0.00759188
x1.a_n1962_4406.n72                 0.00762051
x1.a_n1962_4406.n71                 0.00759126
x1.a_n1962_4406.n18                 0.00761991
x1.a_n1962_4406.n17                 0.00759067
x1.a_n1962_4406.n16                 0.00762012
x1.a_n1962_4406.n15                 0.00759073
x1.a_n1962_4406.n14                  0.0076208
x1.a_n1962_4406.n13                 0.00759133
x1.a_n1962_4406.n12                 0.00762197
x1.a_n1962_4406.n11                 0.00759227
x1.a_n1962_4406.n10                 0.00762362
x1.a_n1962_4406.n9                  0.00759376
x1.a_n1962_4406.n7                  0.00759554
x1.a_n1962_4406.n68                 0.00761905
x1.a_n1962_4406.n67                 0.00758982
x1.a_n1962_4406.n66                 0.00761926
x1.a_n1962_4406.n65                 0.00758992
x1.a_n1962_4406.n64                 0.00761994
x1.a_n1962_4406.n63                 0.00759049
x1.a_n1962_4406.n62                 0.00762111
x1.a_n1962_4406.n61                 0.00759146
x1.a_n1962_4406.n60                 0.00762276
x1.a_n1962_4406.n59                 0.00759292
x1.a_n1962_4406.n57                 0.00759473
x1.a_n1962_4406.n55                 0.00761894
x1.a_n1962_4406.n54                 0.00758975
x1.a_n1962_4406.n20                 0.00759003
x1.a_n1962_4406.n51                 0.00761691
x1.a_n1962_4406.n50                 0.00758776
x1.a_n1962_4406.n35                 0.00761548
x1.a_n1962_4406.n34                 0.00758633
x1.a_n1962_4406.n33                 0.00761439
x1.a_n1962_4406.n32                 0.00758514
x1.a_n1962_4406.n31                 0.00761377
x1.a_n1962_4406.n30                 0.00758444
x1.a_n1962_4406.n29                 0.00761363
x1.a_n1962_4406.n28                 0.00758412
x1.a_n1962_4406.n27                 0.00761398
x1.a_n1962_4406.n26                  0.0075843
x1.a_n1962_4406.n24                 0.00758482
x1.a_n1962_4406.n47                 0.00761548
x1.a_n1962_4406.n46                 0.00750674
x1.a_n1962_4406.n45                 0.00761587
x1.a_n1962_4406.n44                 0.00769659
x1.a_n1962_4406.n43                 0.00761494
x1.a_n1962_4406.n42                   0.007506
x1.a_n1962_4406.n41                 0.00761579
x1.a_n1962_4406.n40                 0.00769652
x1.a_n1962_4406.n38                 0.00750604
x1.a_n1962_4406.n4                  0.00759276
x1.a_n1962_4406.n106                0.00761631
x1.a_n1962_4406.n105                0.00758706
x1.a_n1962_4406.n104                 0.0076157
x1.a_n1962_4406.n103                 0.0075863
x1.a_n1962_4406.n102                0.00761556
x1.a_n1962_4406.n101                0.00758612
x1.a_n1962_4406.n100                0.00761591
x1.a_n1962_4406.n99                 0.00758623
x1.a_n1962_4406.n97                 0.00758693
x1.a_n1962_4406.n95                 0.00761687
x1.a_n1962_4406.n94                  0.0075876
x1.a_n1962_4406.n78                 0.00758833
x1.a_n1962_4406.n91                 0.00761647
x1.a_n1962_4406.n90                 0.00750762
x1.a_n1962_4406.n89                 0.00761686
x1.a_n1962_4406.n88                 0.00769758
x1.a_n1962_4406.n87                 0.00761593
x1.a_n1962_4406.n86                 0.00750695
x1.a_n1962_4406.n85                 0.00761678
x1.a_n1962_4406.n84                  0.0076975
x1.a_n1962_4406.n82                 0.00750705
x1.a_n1962_4406.n121                0.00758595
x1.a_n1962_4406.n120                0.00761539
x1.a_n1962_4406.n49                 0.00761614
x1.a_n1962_4406.n53                 0.00761896
x1.a_n1962_4406.n70                 0.00762002
x1.a_n1962_4406.n69                 0.00761916
x1.a_n1962_4406.n74                 0.00762039
x1.a_n1962_4406.n73                 0.00762125
x1.a_n1962_4406.n93                 0.00761728
x1.a_n1962_4406.n108                0.00761771
x1.a_n1962_4406.n107                0.00761672
x1.vp.n0                                   0.9
x1.vp.n1                                   0.9
x1.vp.n3                                   0.9
x1.vp.n7                                   0.9
x1.vp.n9                                   0.9
x1.vp.n13                                  0.9
x1.vp.n4                                   0.9
x1.vp.n5                                   0.9
x1.vp.n10                                  0.9
x1.vp.n11                                  0.9
x1.vp.n14                                  0.9
x1.vp.n2                                   0.9
x1.vp.n8                                   0.9
x1.vp.n6                                   0.9
x1.vp.n12                                  0.9
x1.a_n735_8972.n50                    0.593268
x1.a_n735_8972.n49                    0.594313
x1.a_n735_8972.n52                    0.594302
x1.a_n735_8972.n51                     0.59326
x1.a_n735_8972.n47                    0.593249
x1.a_n735_8972.n0                     0.594285
x1.a_n735_8972.n48                    0.594304
x1.a_n735_8972.n36                     0.59309
x1.a_n735_8972.n33                     0.59309
x1.a_n735_8972.n30                     0.59309
x1.a_n735_8972.n27                     0.59309
x1.a_n735_8972.n24                     0.59309
x1.a_n735_8972.n21                     0.59309
x1.a_n735_8972.n18                     0.59309
x1.a_n735_8972.n37                     0.59309
x1.a_n735_8972.n38                     0.59309
x1.a_n735_8972.n34                     0.59309
x1.a_n735_8972.n35                     0.59309
x1.a_n735_8972.n31                     0.59309
x1.a_n735_8972.n32                     0.59309
x1.a_n735_8972.n28                     0.59309
x1.a_n735_8972.n29                     0.59309
x1.a_n735_8972.n25                     0.59309
x1.a_n735_8972.n26                     0.59309
x1.a_n735_8972.n22                     0.59309
x1.a_n735_8972.n23                     0.59309
x1.a_n735_8972.n19                     0.59309
x1.a_n735_8972.n20                     0.59309
x1.a_n735_8972.n5                     0.593069
x1.a_n735_8972.n4                     0.592879
x1.a_n735_8972.n11                    0.593073
x1.a_n735_8972.n10                    0.592883
x1.a_n735_8972.n17                    0.593082
x1.a_n735_8972.n16                    0.592891
x1.a_n735_8972.n3                     0.593067
x1.a_n735_8972.n1                     0.592972
x1.a_n735_8972.n8                     0.593067
x1.a_n735_8972.n6                     0.592877
x1.a_n735_8972.n14                    0.593073
x1.a_n735_8972.n12                    0.592883
x1.a_n735_8972.n13                    0.592885
x1.a_n735_8972.n2                     0.592973
x1.a_n735_8972.n7                     0.592879
x1.a_n735_8972.n45                     0.59309
x1.a_n735_8972.n46                     0.59309
x1.a_n735_8972.n44                     0.59309
x1.a_n735_8972.n39                     0.59309
x1.a_n735_8972.n40                     0.59309
x1.a_n735_8972.n41                     0.59309
x1.a_n735_8972.n42                     0.59309
x1.a_n735_8972.n43                     0.59309
x1.a_n735_8972.n9                     0.593071
x1.a_n735_8972.n15                    0.593077
x1.vn.n0                                   0.9
x1.vn.n1                                   0.9
x1.vn.n3                                   0.9
x1.vn.n7                                   0.9
x1.vn.n9                                   0.9
x1.vn.n13                                  0.9
x1.vn.n5                                   0.9
x1.vn.n4                                   0.9
x1.vn.n11                                  0.9
x1.vn.n10                                  0.9
x1.vn.n14                                  0.9
x1.vn.n2                                   0.9
x1.vn.n8                                   0.9
x1.vn.n6                                   0.9
x1.vn.n12                                  0.9
x1.a_n935_8875.n41                       0.593
x1.a_n935_8875.n35                    0.594013
x1.a_n935_8875.n6                     0.593026
x1.a_n935_8875.n4                      0.59404
x1.a_n935_8875.n19                    0.593019
x1.a_n935_8875.n13                    0.594032
x1.a_n935_8875.n27                    0.593008
x1.a_n935_8875.n25                    0.594022
x1.a_n935_8875.n15                    0.593014
x1.a_n935_8875.n37                    0.592995
x1.a_n935_8875.n11                    0.593013
x1.a_n935_8875.n10                    0.593016
x1.a_n935_8875.n32                    0.592995
x1.a_n935_8875.n31                    0.592999
x1.a_n935_8875.n5                     0.593026
x1.a_n935_8875.n26                    0.593008
x1.a_n935_8875.n8                     0.593025
x1.a_n935_8875.n21                    0.593019
x1.a_n935_8875.n14                    0.593019
x1.a_n935_8875.n29                    0.593008
x1.a_n935_8875.n43                       0.593
x1.a_n935_8875.n36                       0.593
x1.a_n935_8875.n55                    0.592712
x1.a_n935_8875.n54                    0.592521
x1.a_n935_8875.n59                     0.59253
x1.a_n935_8875.n58                     0.59272
x1.a_n935_8875.n56                    0.592714
x1.a_n935_8875.n50                    0.592524
x1.a_n935_8875.n53                    0.592709
x1.a_n935_8875.n51                    0.592519
x1.a_n935_8875.n49                    0.592714
x1.a_n935_8875.n47                    0.592524
x1.a_n935_8875.n2                     0.592724
x1.a_n935_8875.n0                     0.592629
x1.a_n935_8875.n52                    0.592521
x1.a_n935_8875.n48                    0.592526
x1.a_n935_8875.n1                      0.59263
x1.a_n935_8875.n46                    0.592725
x1.a_n935_8875.n45                    0.592982
x1.a_n935_8875.n9                     0.593019
x1.a_n935_8875.n22                    0.593012
x1.a_n935_8875.n16                    0.593014
x1.a_n935_8875.n30                    0.593001
x1.a_n935_8875.n44                    0.592993
x1.a_n935_8875.n38                    0.592995
x1.a_n935_8875.n7                     0.593026
x1.a_n935_8875.n3                      0.59302
x1.a_n935_8875.n18                    0.593019
x1.a_n935_8875.n17                    0.593014
x1.a_n935_8875.n20                    0.593019
x1.a_n935_8875.n12                    0.593013
x1.a_n935_8875.n28                    0.593008
x1.a_n935_8875.n24                    0.593002
x1.a_n935_8875.n42                       0.593
x1.a_n935_8875.n34                    0.592994
x1.a_n935_8875.n40                       0.593
x1.a_n935_8875.n39                    0.592995
x1.a_n935_8875.n23                    0.593001
x1.a_n935_8875.n33                    0.592984
x1.a_n935_8875.n57                    0.592716
v.x1.x62.x0.vrbody_3#branch                  0
e1#branch                         -7.00828e-16
e2#branch                         -1.22818e-15
v4#branch                         -0.000114435
v0#branch                          0.000114435
vcm#branch                        -1.92901e-15
vdm#branch                                   0

 Reference value :  0.00000e+00
 Reference value :  2.00000e-09
 Reference value :  3.20000e-08
 Reference value :  2.14000e-07
 Reference value :  4.14000e-07
 Reference value :  6.64000e-07
 Reference value :  8.64000e-07
 Reference value :  1.06400e-06
 Reference value :  1.31400e-06
 Reference value :  1.56400e-06
 Reference value :  1.81400e-06
 Reference value :  2.06400e-06
 Reference value :  2.26400e-06
 Reference value :  2.46400e-06
 Reference value :  2.71400e-06
 Reference value :  2.91400e-06
 Reference value :  3.11400e-06
 Reference value :  3.36400e-06
 Reference value :  3.56400e-06
 Reference value :  3.76400e-06
 Reference value :  3.96400e-06
 Reference value :  4.16400e-06
 Reference value :  4.36400e-06
 Reference value :  4.56400e-06
 Reference value :  4.76400e-06
 Reference value :  4.96400e-06
 Reference value :  5.16400e-06
 Reference value :  5.36400e-06
 Reference value :  5.56400e-06
 Reference value :  5.76400e-06
 Reference value :  5.91400e-06
 Reference value :  6.11400e-06
 Reference value :  6.31400e-06
 Reference value :  6.56400e-06
 Reference value :  6.81400e-06
 Reference value :  7.06400e-06
 Reference value :  7.31400e-06
 Reference value :  7.61400e-06
 Reference value :  7.86400e-06
 Reference value :  8.16400e-06
 Reference value :  8.46400e-06
 Reference value :  8.81400e-06
 Reference value :  9.06400e-06
 Reference value :  9.26400e-06
 Reference value :  9.46400e-06
 Reference value :  9.71400e-06
 Reference value :  9.96400e-06
