
Note: Compatibility modes selected: hs a


Circuit: ** sch_path: /foss/designs/sky130_op_amp/runs/run_2025-10-22_16-40-42/parameters/dc_params/run_02/sky130_op_amp_tb.sch

option SCALE: Scale is set to 1e-06 for instance and model parameters
option SCALE: Scale is set to 1e-06 for instance and model parameters
option SCALE: Scale is set to 1e-06 for instance and model parameters
option SCALE: Scale is set to 1e-06 for instance and model parameters
Doing analysis at TEMP = 20.000000 and TNOM = 27.000000

Using SPARSE 1.3 as Direct Linear Solver
 Reference value :  1.00000e+03
 Reference value :  1.77828e+03
 Reference value :  3.54813e+03
 Reference value :  6.30957e+03
 Reference value :  1.12202e+04
 Reference value :  1.99526e+04
 Reference value :  2.81838e+04
 Reference value :  3.98107e+04
 Reference value :  6.30957e+04
 Reference value :  1.12202e+05
 Reference value :  1.77828e+05
 Reference value :  2.81838e+05
 Reference value :  4.46684e+05
 Reference value :  7.07946e+05
 Reference value :  1.12202e+06
 Reference value :  1.77828e+06
 Reference value :  2.81838e+06
 Reference value :  4.46684e+06
 Reference value :  7.07946e+06
 Reference value :  1.12202e+07
 Reference value :  1.99526e+07
 Reference value :  3.54813e+07
 Reference value :  6.30957e+07
No. of Data Rows : 101
a0                  =  7.263911e+01
ugf                 =  1.081251e+07
pm                  =  8.148426e+01
Note: Simulation executed from .control section 
