
Note: Compatibility modes selected: hs a


Circuit: ** sch_path: /foss/designs/sky130_op_amp/runs/run_2025-10-21_19-12-46/parameters/slew_rate/run_71/transient.sch

option SCALE: Scale is set to 1e-06 for instance and model parameters
option SCALE: Scale is set to 1e-06 for instance and model parameters
option SCALE: Scale is set to 1e-06 for instance and model parameters
option SCALE: Scale is set to 1e-06 for instance and model parameters
Doing analysis at TEMP = 130.000000 and TNOM = 27.000000

Using SPARSE 1.3 as Direct Linear Solver

Initial Transient Solution
--------------------------

Node                                   Voltage
----                                   -------
vdd                                        1.9
ibias                                 0.599159
vout                               1.39095e-05
vss                                          0
vn                                 1.39095e-05
vp                                           0
x1.a_8862_4192.t27                  0.00118841
x1.en.t0                                   1.9
x1.vss.t311                        9.29796e-05
x1.vss.t215                        5.47392e-05
x1.vdd.t97                                 1.9
x1.vdd.t96                                 1.9
x1.vdd.t44                                 1.9
x1.vdd.t95                                 1.9
x1.vdd.t93                                 1.9
x1.vdd.t94                                 1.9
x1.vdd.t47                                 1.9
x1.a_3868_4185.t39                 1.21957e-05
x1.ibias.t10                          0.599138
x1.a_3329_8823.t39                 1.29029e-05
x1.vss.t0                          1.41709e-05
x1.a_n1962_4406.t59                1.22996e-05
x1.ibias.t11                          0.599138
x1.vout.t21                        1.38547e-05
x1.vss.t6                          1.22192e-05
x1.a_n1962_4406.t58                1.22996e-05
x1.ibias.t12                          0.599138
x1.vout.t53                        1.38552e-05
x1.vss.t211                        5.35396e-05
x1.vss.t209                        5.36991e-05
x1.vss.t210                        6.85912e-05
x1.vss.t30                         5.01486e-05
x1.a_3329_8823.t38                 1.29029e-05
x1.ibias.t13                          0.599138
x1.a_3868_4185.t38                 1.21957e-05
x1.vss.t1                          1.40089e-05
x1.vss.t208                        1.22102e-05
x1.vss.t207                        1.22097e-05
x1.vss.t64                         1.40984e-05
x1.vdd.t92                                 1.9
x1.vdd.t91                                 1.9
x1.vdd.t71                                 1.9
x1.a_3868_4185.t37                 1.21957e-05
x1.ibias.t14                          0.599138
x1.a_3329_8823.t8                  1.29029e-05
x1.vss.t11                          1.3849e-05
x1.a_n735_8972.t23                     1.60909
x1.vp.t0                                     0
x1.a_3329_8823.t56                 1.29122e-05
x1.vss.t2                          1.36049e-05
x1.vss.t310                         1.2132e-05
x1.en.t1                                   1.9
x1.a_n1962_4406.t123               1.22971e-05
x1.vss.t77                         1.22257e-05
x1.a_3868_4185.t36                 1.21937e-05
x1.ibias.t15                          0.599138
x1.a_3329_8823.t17                  1.2903e-05
x1.vss.t7                           1.4543e-05
x1.a_3329_8823.t66                 1.29125e-05
x1.vn.t0                           1.39095e-05
x1.a_n935_8875.t15                      1.6082
x1.vss.t4                          1.37234e-05
x1.vdd.t19                                 1.9
x1.a_n735_8972.t27                     1.60909
x1.vout.t67                        1.39331e-05
x1.vdd.t15                                 1.9
x1.a_n1962_4406.t122               1.22987e-05
x1.en.t2                                   1.9
x1.vss.t309                         1.2132e-05
x1.vss.t8                          1.22247e-05
x1.a_3329_8823.t65                 1.29122e-05
x1.vn.t1                           1.39095e-05
x1.a_n935_8875.t14                      1.6082
x1.vss.t5                          1.34867e-05
x1.vdd.t36                                 1.9
x1.a_n735_8972.t28                     1.60909
x1.vout.t77                        1.39314e-05
x1.vdd.t5                                  1.9
x1.vss.t206                        1.22097e-05
x1.vss.t205                        1.22097e-05
x1.a_3329_8823.t55                 1.29112e-05
x1.a_n1962_4406.t57                1.23037e-05
x1.ibias.t16                          0.599138
x1.vout.t45                        1.38542e-05
x1.vss.t212                        1.22209e-05
x1.a_n1962_4406.t56                1.22998e-05
x1.ibias.t17                          0.599138
x1.vout.t2                         1.38543e-05
x1.vss.t308                         1.2132e-05
x1.en.t3                                   1.9
x1.a_n1962_4406.t121               1.22988e-05
x1.vss.t19                         1.22218e-05
x1.a_3329_8823.t43                 1.29123e-05
x1.vn.t2                           1.39095e-05
x1.a_n935_8875.t13                      1.6082
x1.vdd.t90                                 1.9
x1.vdd.t89                                 1.9
x1.a_n1962_4406.t79                1.23016e-05
x1.vss.t203                        1.21152e-05
x1.vss.t204                        1.21152e-05
x1.vss.t20                         1.22228e-05
x1.a_n1962_4406.t120               1.22988e-05
x1.en.t4                                   1.9
x1.vss.t307                        1.21337e-05
x1.vout.t38                        1.38544e-05
x1.ibias.t18                          0.599138
x1.a_n1962_4406.t55                1.22997e-05
x1.vss.t12                         1.22237e-05
x1.vss.t202                        1.21152e-05
x1.vss.t201                        1.21152e-05
x1.a_n1962_4406.t78                1.22976e-05
x1.vss.t56                         1.22278e-05
x1.vdd.t88                                 1.9
x1.vdd.t87                                 1.9
x1.a_n935_8875.t12                      1.6082
x1.vn.t3                           1.39095e-05
x1.a_3329_8823.t62                 1.29112e-05
x1.vss.t84                         1.33399e-05
x1.vout.t46                        1.38542e-05
x1.ibias.t19                          0.599138
x1.a_n1962_4406.t54                1.23037e-05
x1.vss.t9                            1.222e-05
x1.vdd.t86                                 1.9
x1.vdd.t84                                 1.9
x1.vdd.t85                                 1.9
x1.a_3329_8823.t63                 1.29114e-05
x1.vp.t1                                     0
x1.a_n735_8972.t22                     1.60909
x1.vss.t89                         1.39619e-05
x1.vss.t306                        1.21337e-05
x1.en.t5                                   1.9
x1.a_n1962_4406.t119               1.22988e-05
x1.vdd.t17                                 1.9
x1.a_n735_8972.t29                     1.60909
x1.vout.t65                        1.39349e-05
x1.vdd.t16                                 1.9
x1.a_n735_8972.t30                     1.60909
x1.vout.t64                        1.39345e-05
x1.vss.t198                        1.21152e-05
x1.vss.t197                        1.21152e-05
x1.a_n1962_4406.t53                1.23019e-05
x1.ibias.t20                          0.599138
x1.vout.t42                        1.38542e-05
x1.vss.t45                         1.22205e-05
x1.vout.t35                        1.38542e-05
x1.ibias.t21                          0.599138
x1.a_n1962_4406.t52                1.22998e-05
x1.vss.t16                         1.22183e-05
x1.vss.t200                        1.20902e-05
x1.vss.t199                        1.20902e-05
x1.a_3868_4185.t55                 1.21927e-05
x1.vss.t27                         1.57228e-05
x1.vss.t196                        1.20902e-05
x1.vss.t195                        1.20902e-05
x1.a_3868_4185.t54                 1.21927e-05
x1.a_n1962_4406.t77                1.23014e-05
x1.vss.t193                        1.21152e-05
x1.vss.t194                        1.21152e-05
x1.vss.t38                         1.22269e-05
x1.a_3329_8823.t42                 1.29124e-05
x1.vn.t4                           1.39095e-05
x1.a_n935_8875.t11                      1.6082
x1.a_n1962_4406.t118               1.22987e-05
x1.en.t6                                   1.9
x1.vss.t305                        1.21319e-05
x1.vss.t15                          1.2218e-05
x1.a_n1962_4406.t117               1.22987e-05
x1.en.t7                                   1.9
x1.vss.t304                        1.21284e-05
x1.vss.t192                        7.03757e-05
x1.vss.t191                        6.30204e-05
x1.vss.t22                         5.73688e-05
x1.a_n735_8972.t21                     1.60909
x1.vp.t2                                     0
x1.a_3329_8823.t73                 1.29121e-05
x1.vss.t313                        1.39948e-05
x1.a_n1962_4406.t51                1.22997e-05
x1.ibias.t22                          0.599138
x1.vout.t9                         1.38548e-05
x1.a_n1962_4406.t116               1.22987e-05
x1.en.t8                                   1.9
x1.vss.t303                        1.21246e-05
x1.a_3329_8823.t35                 1.29033e-05
x1.ibias.t23                          0.599138
x1.a_3868_4185.t35                  1.2195e-05
x1.vss.t14                         1.36875e-05
x1.ibias.t7                           0.598925
x1.ibias.t6                           0.599127
x1.a_8862_4192.t0                   0.00141854
x1.vss.t214                        5.33354e-05
x1.vss.t302                        0.000103755
x1.en.t9                                   1.9
x1.a_8862_4192.t26                  0.00118771
x1.a_n935_8875.t33                      1.6082
x1.a_n935_8875.t32                      1.6082
x1.vdd.t110                                1.9
x1.vdd.t8                                  1.9
x1.a_n1962_4406.t50                1.22997e-05
x1.ibias.t24                          0.599138
x1.vout.t3                         1.38553e-05
x1.vss.t190                        1.21152e-05
x1.vss.t188                        1.21152e-05
x1.vss.t189                        1.21152e-05
x1.vout.t0                         1.38547e-05
x1.ibias.t25                          0.599138
x1.a_n1962_4406.t49                1.22997e-05
x1.vout.t6                         1.38552e-05
x1.ibias.t26                          0.599138
x1.a_n1962_4406.t48                1.22997e-05
x1.a_3868_4185.t53                 1.21948e-05
x1.vss.t186                        1.20902e-05
x1.vss.t187                        1.20902e-05
x1.vss.t51                         1.35188e-05
x1.a_8862_4192.t25                  0.00118762
x1.en.t10                                  1.9
x1.vss.t301                        7.70841e-05
x1.vss.t219                        5.18452e-05
x1.vss.t185                        5.90672e-05
x1.vss.t183                        5.91536e-05
x1.vss.t184                          7.402e-05
x1.vdd.t7                                  1.9
x1.a_n735_8972.t31                     1.60909
x1.vout.t62                        1.39332e-05
x1.a_n735_8972.t7                      1.60909
x1.x62.x0.t1                           1.60909
x1.x62.x0.t2                           1.60909
x1.a_9909_7861.t0                      1.60909
x1.vss.t218                        5.90503e-05
x1.x62.x0.rbody_3                            0
x1.a_3868_4185.t34                 1.21949e-05
x1.ibias.t27                          0.599138
x1.a_3329_8823.t4                  1.29033e-05
x1.vss.t10                         1.51816e-05
x1.a_8862_4192.t3                   0.00141854
x1.ibias.t4                           0.599126
x1.ibias.t5                           0.599014
x1.vss.t300                        1.21353e-05
x1.en.t11                                  1.9
x1.a_n1962_4406.t115               1.22989e-05
x1.vss.t17                         1.22184e-05
x1.a_n1962_4406.t114                1.2297e-05
x1.en.t12                                  1.9
x1.vss.t299                        1.21263e-05
x1.vss.t182                        1.21152e-05
x1.vss.t181                        1.21152e-05
x1.a_n735_8972.t24                     1.60909
x1.a_n935_8875.t34                      1.6082
x1.vdd.t103                                1.9
x1.vdd.t30                                 1.9
x1.vss.t180                        1.22097e-05
x1.vss.t179                        1.22097e-05
x1.a_3329_8823.t54                 1.29111e-05
x1.a_3329_8823.t2                  1.29033e-05
x1.ibias.t28                          0.599138
x1.a_3868_4185.t33                 1.21957e-05
x1.vss.t13                         1.48309e-05
x1.vss.t178                        6.89087e-05
x1.vss.t177                        6.15446e-05
x1.vss.t293                        1.20985e-05
x1.en.t13                                  1.9
x1.a_3868_4185.t79                 1.21932e-05
x1.vss.t18                         1.43411e-05
x1.a_n935_8875.t10                      1.6082
x1.vn.t5                           1.39095e-05
x1.a_3329_8823.t64                 1.29122e-05
x1.vss.t298                        1.21264e-05
x1.en.t14                                  1.9
x1.a_n1962_4406.t113               1.22986e-05
x1.vss.t176                        1.21152e-05
x1.vss.t175                        1.21152e-05
x1.a_n1962_4406.t76                1.23015e-05
x1.a_3329_8823.t71                 1.29113e-05
x1.vn.t6                           1.39095e-05
x1.a_n935_8875.t9                       1.6082
x1.vdd.t83                                 1.9
x1.vdd.t82                                 1.9
x1.a_3868_4185.t78                 1.21932e-05
x1.en.t15                                  1.9
x1.vss.t297                        1.20987e-05
x1.a_3868_4185.t77                 1.21932e-05
x1.en.t16                                  1.9
x1.vss.t296                        1.20986e-05
x1.vdd.t33                                 1.9
x1.a_n735_8972.t32                     1.60909
x1.vout.t75                        1.39348e-05
x1.vss.t295                        9.15667e-05
x1.en.t17                                  1.9
x1.a_8862_4192.t24                  0.00118698
x1.a_3329_8823.t28                  1.2903e-05
x1.ibias.t29                          0.599138
x1.a_3868_4185.t32                  1.2195e-05
x1.a_3329_8823.t77                 1.29125e-05
x1.vp.t3                                     0
x1.a_n735_8972.t20                     1.60909
x1.vdd.t105                                1.9
x1.a_n735_8972.t33                     1.60909
x1.vout.t86                        1.39337e-05
x1.a_3868_4185.t31                 1.21937e-05
x1.ibias.t30                          0.599138
x1.a_3329_8823.t11                 1.29029e-05
x1.a_n1962_4406.t112               1.22987e-05
x1.en.t18                                  1.9
x1.vss.t294                        1.21301e-05
x1.a_8862_4192.t23                  0.00118691
x1.en.t19                                  1.9
x1.vss.t292                        7.22603e-05
x1.vss.t174                        5.45769e-05
x1.vss.t172                        5.45979e-05
x1.vss.t173                         6.9348e-05
x1.a_3329_8823.t12                 1.29029e-05
x1.ibias.t31                          0.599138
x1.a_3868_4185.t30                 1.21937e-05
x1.a_3868_4185.t52                 1.21948e-05
x1.vss.t170                        1.20902e-05
x1.vss.t171                        1.20902e-05
x1.vout.t49                         1.3855e-05
x1.ibias.t32                          0.599138
x1.a_n1962_4406.t47                1.22996e-05
x1.vout.t28                        1.38555e-05
x1.ibias.t33                          0.599138
x1.a_n1962_4406.t46                1.22996e-05
x1.a_n1962_4406.t45                1.23019e-05
x1.ibias.t34                          0.599138
x1.vout.t57                        1.38559e-05
x1.a_3868_4185.t76                 1.21924e-05
x1.en.t20                                  1.9
x1.vss.t291                        1.20985e-05
x1.a_3329_8823.t61                 1.29122e-05
x1.vp.t4                                     0
x1.a_n735_8972.t19                     1.60909
x1.vout.t69                        1.39349e-05
x1.a_n735_8972.t34                     1.60909
x1.vdd.t23                                 1.9
x1.vdd.t13                                 1.9
x1.vss.t130                        1.21152e-05
x1.vss.t129                        1.21152e-05
x1.a_3868_4185.t75                 1.21932e-05
x1.en.t21                                  1.9
x1.vss.t290                        1.20985e-05
x1.vss.t289                        1.20985e-05
x1.en.t22                                  1.9
x1.a_3868_4185.t74                 1.21932e-05
x1.vout.t54                        1.38544e-05
x1.ibias.t35                          0.599138
x1.a_n1962_4406.t44                1.23019e-05
x1.a_3868_4185.t29                 1.21957e-05
x1.ibias.t36                          0.599138
x1.a_3329_8823.t18                 1.29029e-05
x1.vss.t169                        1.21152e-05
x1.vss.t168                        1.21152e-05
x1.a_n1962_4406.t43                1.22997e-05
x1.ibias.t37                          0.599138
x1.vout.t52                        1.38544e-05
x1.vout.t25                        1.38542e-05
x1.ibias.t38                          0.599138
x1.a_n1962_4406.t42                 1.2302e-05
x1.vss.t167                        1.21152e-05
x1.vss.t166                        1.21152e-05
x1.vout.t26                        1.38543e-05
x1.ibias.t39                          0.599138
x1.a_n1962_4406.t41                1.22998e-05
x1.vss.t165                        1.21152e-05
x1.vss.t164                        1.21152e-05
x1.a_n1962_4406.t75                1.23015e-05
x1.vss.t288                        1.21337e-05
x1.en.t23                                  1.9
x1.a_n1962_4406.t111               1.22988e-05
x1.a_n935_8875.t8                       1.6082
x1.vn.t7                           1.39095e-05
x1.a_3329_8823.t46                 1.29124e-05
x1.vss.t3                          1.38415e-05
x1.vdd.t81                                 1.9
x1.vdd.t80                                 1.9
x1.vss.t287                        1.21284e-05
x1.en.t24                                  1.9
x1.a_n1962_4406.t110                1.2297e-05
x1.vss.t286                        1.21246e-05
x1.en.t25                                  1.9
x1.a_n1962_4406.t109                1.2297e-05
x1.vdd.t106                                1.9
x1.a_n935_8875.t35                      1.6082
x1.a_n735_8972.t25                     1.60909
x1.vdd.t11                                 1.9
x1.a_n1962_4406.t40                1.23019e-05
x1.ibias.t40                          0.599138
x1.vout.t58                        1.38544e-05
x1.vss.t163                        1.22102e-05
x1.vss.t161                        1.22097e-05
x1.vss.t162                        1.43253e-05
x1.vdd.t25                                 1.9
x1.a_n735_8972.t35                     1.60909
x1.vout.t71                        1.39324e-05
x1.vss.t160                        1.21152e-05
x1.vss.t158                        1.21152e-05
x1.vss.t159                        1.21152e-05
x1.a_n1962_4406.t108               1.22986e-05
x1.en.t26                                  1.9
x1.vss.t285                        1.21284e-05
x1.a_3329_8823.t27                 1.29032e-05
x1.ibias.t41                          0.599138
x1.a_3868_4185.t28                 1.21937e-05
x1.a_n935_8875.t31                      1.6082
x1.a_n935_8875.t30                      1.6082
x1.vdd.t37                                 1.9
x1.a_n1962_4406.t39                1.23019e-05
x1.ibias.t42                          0.599138
x1.vout.t13                        1.38541e-05
x1.vout.t16                        1.38544e-05
x1.ibias.t43                          0.599138
x1.a_n1962_4406.t38                1.22997e-05
x1.a_n1962_4406.t37                1.22997e-05
x1.ibias.t44                          0.599138
x1.vout.t22                        1.38546e-05
x1.a_n1962_4406.t107               1.22985e-05
x1.en.t27                                  1.9
x1.vss.t284                        1.21246e-05
x1.a_3329_8823.t0                  1.29031e-05
x1.ibias.t45                          0.599138
x1.a_3868_4185.t27                 1.21937e-05
x1.a_n735_8972.t18                     1.60909
x1.vp.t5                                     0
x1.a_3329_8823.t47                 1.29123e-05
x1.vss.t157                        1.22105e-05
x1.vss.t155                        1.22098e-05
x1.a_n735_8972.t4                      1.60909
x1.vss.t156                        1.41563e-05
x1.vout.t73                        1.39348e-05
x1.a_n735_8972.t36                     1.60909
x1.vdd.t27                                 1.9
x1.a_n1962_4406.t36                1.22997e-05
x1.ibias.t46                          0.599138
x1.vout.t39                        1.38543e-05
x1.a_n1962_4406.t106               1.22987e-05
x1.en.t28                                  1.9
x1.vss.t280                        1.21302e-05
x1.vss.t281                        1.21284e-05
x1.en.t29                                  1.9
x1.a_n1962_4406.t105               1.22987e-05
x1.vss.t283                        1.21246e-05
x1.en.t30                                  1.9
x1.a_n1962_4406.t104               1.22987e-05
x1.vss.t282                        0.000102864
x1.en.t31                                  1.9
x1.a_8862_4192.t22                  0.00118725
x1.a_3329_8823.t53                 1.29109e-05
x1.vss.t153                        1.22094e-05
x1.vss.t154                        1.22094e-05
x1.vss.t61                          1.3158e-05
x1.vout.t14                        1.38548e-05
x1.ibias.t47                          0.599138
x1.a_n1962_4406.t35                1.22996e-05
x1.vss.t152                        1.21152e-05
x1.vss.t151                        1.21152e-05
x1.a_n1962_4406.t74                1.22976e-05
x1.vout.t17                        1.38553e-05
x1.ibias.t48                          0.599138
x1.a_n1962_4406.t34                1.22995e-05
x1.vss.t150                        1.21152e-05
x1.vss.t149                        1.21152e-05
x1.vss.t279                        1.21301e-05
x1.en.t32                                  1.9
x1.a_n1962_4406.t103               1.22988e-05
x1.a_n1962_4406.t33                1.23037e-05
x1.ibias.t49                          0.599138
x1.vout.t50                        1.38559e-05
x1.a_3868_4185.t73                 1.21932e-05
x1.en.t33                                  1.9
x1.vss.t278                        1.20987e-05
x1.vss.t274                        1.20987e-05
x1.en.t34                                  1.9
x1.a_3868_4185.t72                 1.21925e-05
x1.vss.t277                        1.20986e-05
x1.en.t35                                  1.9
x1.a_3868_4185.t71                 1.21925e-05
x1.a_n935_8875.t29                      1.6082
x1.a_n935_8875.t28                      1.6082
x1.vdd.t29                                 1.9
x1.vdd.t79                                 1.9
x1.vdd.t78                                 1.9
x1.a_n1962_4406.t32                1.23037e-05
x1.ibias.t50                          0.599138
x1.vout.t29                        1.38559e-05
x1.a_8862_4192.t21                  0.00118716
x1.en.t36                                  1.9
x1.vss.t276                        7.76721e-05
x1.a_3868_4185.t70                 1.21932e-05
x1.en.t37                                  1.9
x1.vss.t275                        1.20987e-05
x1.vss.t148                        1.20902e-05
x1.vss.t147                        1.20902e-05
x1.a_3868_4185.t51                 1.21947e-05
x1.vdd.t22                                 1.9
x1.a_n935_8875.t26                      1.6082
x1.a_n935_8875.t27                      1.6082
x1.vdd.t0                                  1.9
x1.vout.t23                        1.38559e-05
x1.ibias.t51                          0.599138
x1.a_n1962_4406.t31                1.23037e-05
x1.vss.t273                        1.20987e-05
x1.en.t38                                  1.9
x1.a_3868_4185.t69                 1.21932e-05
x1.a_3868_4185.t50                 1.21928e-05
x1.vss.t145                        1.20902e-05
x1.vss.t146                        1.20902e-05
x1.vss.t144                        5.79361e-05
x1.vss.t142                        5.80802e-05
x1.vss.t143                        7.29211e-05
x1.a_3868_4185.t49                 1.21928e-05
x1.vss.t140                        1.20902e-05
x1.vss.t141                        1.20902e-05
x1.vss.t272                        1.20987e-05
x1.en.t39                                  1.9
x1.a_3868_4185.t68                 1.21932e-05
x1.vss.t271                        1.21319e-05
x1.en.t40                                  1.9
x1.a_n1962_4406.t102               1.22987e-05
x1.a_3868_4185.t26                 1.21949e-05
x1.ibias.t52                          0.599138
x1.a_3329_8823.t14                  1.2903e-05
x1.a_3868_4185.t25                 1.21949e-05
x1.ibias.t53                          0.599138
x1.a_3329_8823.t24                 1.29031e-05
x1.a_3329_8823.t67                 1.29121e-05
x1.vn.t8                           1.39095e-05
x1.a_n935_8875.t7                       1.6082
x1.vss.t217                        1.38348e-05
x1.a_3868_4185.t24                 1.21937e-05
x1.ibias.t54                          0.599138
x1.a_3329_8823.t34                 1.29032e-05
x1.vdd.t77                                 1.9
x1.vdd.t76                                 1.9
x1.a_n1962_4406.t73                1.23014e-05
x1.vss.t138                        1.21152e-05
x1.vss.t139                        1.21152e-05
x1.a_n1962_4406.t72                1.23015e-05
x1.vss.t136                        1.21152e-05
x1.vss.t137                        1.21152e-05
x1.ibias.t3                           0.599019
x1.ibias.t2                           0.599131
x1.a_8862_4192.t2                   0.00141855
x1.vss.t216                        5.60901e-05
x1.vss.t270                         7.5795e-05
x1.en.t41                                  1.9
x1.a_8862_4192.t20                   0.0011876
x1.a_3868_4185.t23                 1.21937e-05
x1.ibias.t55                          0.599138
x1.a_3329_8823.t5                  1.29031e-05
x1.a_3329_8823.t9                  1.29031e-05
x1.ibias.t56                          0.599138
x1.a_3868_4185.t22                 1.21937e-05
x1.a_n1962_4406.t101               1.22986e-05
x1.en.t42                                  1.9
x1.vss.t269                        1.21283e-05
x1.a_n1962_4406.t100               1.22986e-05
x1.en.t43                                  1.9
x1.vss.t268                        1.21245e-05
x1.a_3329_8823.t13                  1.2903e-05
x1.ibias.t57                          0.599138
x1.a_3868_4185.t21                 1.21937e-05
x1.vdd.t75                                 1.9
x1.vdd.t73                                 1.9
x1.vdd.t74                                 1.9
x1.vdd.t40                                 1.9
x1.vss.t267                        9.24953e-05
x1.en.t44                                  1.9
x1.a_8862_4192.t19                  0.00118746
x1.a_8862_4192.t18                  0.00118769
x1.en.t45                                  1.9
x1.vss.t266                        0.000103755
x1.vdd.t101                                1.9
x1.a_n735_8972.t37                     1.60909
x1.vout.t83                        1.39342e-05
x1.a_n1962_4406.t30                1.22998e-05
x1.ibias.t58                          0.599138
x1.vout.t55                        1.38542e-05
x1.a_8862_4192.t1                   0.00141854
x1.ibias.t0                           0.599128
x1.ibias.t1                           0.598925
x1.a_3329_8823.t1                  1.29029e-05
x1.ibias.t59                          0.599138
x1.a_3868_4185.t20                  1.2195e-05
x1.vdd.t109                                1.9
x1.a_n935_8875.t36                      1.6082
x1.a_n735_8972.t26                     1.60909
x1.a_8862_4192.t17                   0.0011874
x1.en.t46                                  1.9
x1.vss.t265                        7.30162e-05
x1.vss.t135                        5.55055e-05
x1.vss.t133                        5.54033e-05
x1.vss.t134                        7.00337e-05
x1.vout.t81                        1.39331e-05
x1.a_n735_8972.t38                     1.60909
x1.vdd.t99                                 1.9
x1.vss.t128                        1.20902e-05
x1.vss.t127                        1.20902e-05
x1.a_3868_4185.t48                 1.21928e-05
x1.a_3868_4185.t47                 1.21948e-05
x1.vss.t131                        1.20902e-05
x1.vss.t132                        1.20902e-05
x1.a_n935_8875.t25                      1.6082
x1.a_n935_8875.t24                      1.6082
x1.vdd.t31                                 1.9
x1.a_3868_4185.t19                  1.2195e-05
x1.ibias.t60                          0.599138
x1.a_3329_8823.t25                 1.29029e-05
x1.a_3329_8823.t52                 1.29108e-05
x1.vss.t125                        1.22094e-05
x1.vss.t126                        1.22094e-05
x1.vss.t248                        7.29719e-05
x1.en.t47                                  1.9
x1.a_8862_4192.t16                  0.00118693
x1.a_3329_8823.t6                  1.29029e-05
x1.ibias.t61                          0.599138
x1.a_3868_4185.t18                 1.21957e-05
x1.vdd.t72                                 1.9
x1.vdd.t70                                 1.9
x1.a_3868_4185.t67                 1.21932e-05
x1.en.t48                                  1.9
x1.vss.t264                        1.20985e-05
x1.vout.t63                        1.39345e-05
x1.a_n735_8972.t39                     1.60909
x1.vdd.t14                                 1.9
x1.vout.t68                        1.39321e-05
x1.a_n735_8972.t40                     1.60909
x1.vdd.t20                                 1.9
x1.vdd.t2                                  1.9
x1.a_n1962_4406.t99                1.22986e-05
x1.en.t49                                  1.9
x1.vss.t263                        1.21265e-05
x1.a_8862_4192.t15                  0.00118699
x1.en.t50                                  1.9
x1.vss.t262                        9.15667e-05
x1.vss.t124                        1.22097e-05
x1.vss.t123                        1.22097e-05
x1.a_3329_8823.t51                 1.29112e-05
x1.a_n1962_4406.t98                1.22986e-05
x1.en.t51                                  1.9
x1.vss.t261                        1.21226e-05
x1.vdd.t69                                 1.9
x1.vdd.t67                                 1.9
x1.vdd.t68                                 1.9
x1.a_3329_8823.t58                 1.29114e-05
x1.vp.t6                                     0
x1.a_n735_8972.t17                     1.60909
x1.vss.t122                        1.21152e-05
x1.vss.t121                        1.21152e-05
x1.a_n1962_4406.t71                1.23015e-05
x1.a_3329_8823.t79                 1.29114e-05
x1.vn.t9                           1.39095e-05
x1.a_n935_8875.t6                       1.6082
x1.vout.t40                        1.38546e-05
x1.ibias.t62                          0.599138
x1.a_n1962_4406.t29                1.23019e-05
x1.a_n935_8875.t5                       1.6082
x1.vn.t10                          1.39095e-05
x1.a_3329_8823.t70                 1.29121e-05
x1.vdd.t66                                 1.9
x1.vdd.t64                                 1.9
x1.vdd.t65                                 1.9
x1.a_n735_8972.t5                      1.60909
x1.a_n935_8875.t37                      1.6082
x1.vdd.t28                                 1.9
x1.vout.t66                        1.39335e-05
x1.a_n735_8972.t41                     1.60909
x1.vdd.t18                                 1.9
x1.vss.t120                        1.21152e-05
x1.vss.t119                        1.21152e-05
x1.a_n1962_4406.t97                1.22971e-05
x1.en.t52                                  1.9
x1.vss.t260                        1.21335e-05
x1.a_n1962_4406.t28                1.22996e-05
x1.ibias.t63                          0.599138
x1.vout.t15                        1.38546e-05
x1.vss.t118                        1.21152e-05
x1.vss.t117                        1.21152e-05
x1.vdd.t4                                  1.9
x1.a_n935_8875.t38                      1.6082
x1.a_n735_8972.t0                      1.60909
x1.a_n735_8972.t16                     1.60909
x1.vp.t7                                     0
x1.a_3329_8823.t74                 1.29125e-05
x1.a_3329_8823.t75                 1.29121e-05
x1.vp.t8                                     0
x1.a_n735_8972.t15                     1.60909
x1.a_n1962_4406.t96                1.22989e-05
x1.en.t53                                  1.9
x1.vss.t259                        1.21353e-05
x1.vdd.t63                                 1.9
x1.vdd.t61                                 1.9
x1.vdd.t62                                 1.9
x1.vss.t116                        1.21152e-05
x1.vss.t115                        1.21152e-05
x1.a_n1962_4406.t70                1.23015e-05
x1.a_n1962_4406.t27                1.22998e-05
x1.ibias.t64                          0.599138
x1.vout.t18                        1.38543e-05
x1.vss.t258                        1.21335e-05
x1.en.t54                                  1.9
x1.a_n1962_4406.t95                1.22988e-05
x1.vout.t10                        1.38546e-05
x1.ibias.t65                          0.599138
x1.a_n1962_4406.t26                1.22997e-05
x1.a_n735_8972.t14                     1.60909
x1.vp.t9                                     0
x1.a_3329_8823.t78                 1.29112e-05
x1.a_3329_8823.t59                 1.29124e-05
x1.vp.t10                                    0
x1.a_n735_8972.t13                     1.60909
x1.a_n735_8972.t12                     1.60909
x1.vp.t11                                    0
x1.a_3329_8823.t69                 1.29111e-05
x1.a_n1962_4406.t69                1.22976e-05
x1.vss.t113                        1.21152e-05
x1.vss.t114                        1.21152e-05
x1.vss.t257                        1.21302e-05
x1.en.t55                                  1.9
x1.a_n1962_4406.t94                1.22986e-05
x1.a_n1962_4406.t68                1.23014e-05
x1.vss.t111                        1.21152e-05
x1.vss.t112                        1.21152e-05
x1.vout.t51                        1.38542e-05
x1.ibias.t66                          0.599138
x1.a_n1962_4406.t25                1.22998e-05
x1.vout.t30                        1.38559e-05
x1.ibias.t67                          0.599138
x1.a_n1962_4406.t24                1.23037e-05
x1.vout.t24                        1.38559e-05
x1.ibias.t68                          0.599138
x1.a_n1962_4406.t23                1.23019e-05
x1.vss.t256                        0.000104235
x1.en.t56                                  1.9
x1.a_8862_4192.t14                  0.00118863
x1.a_8862_4192.t13                  0.00118854
x1.en.t57                                  1.9
x1.vss.t255                        7.65813e-05
x1.vdd.t21                                 1.9
x1.a_n935_8875.t22                      1.6082
x1.a_n935_8875.t23                      1.6082
x1.a_3329_8823.t50                 1.29109e-05
x1.vss.t109                        1.22095e-05
x1.vss.t110                        1.22095e-05
x1.vout.t56                        1.38541e-05
x1.ibias.t69                          0.599138
x1.a_n1962_4406.t22                1.23037e-05
x1.a_n1962_4406.t21                1.23019e-05
x1.ibias.t70                          0.599138
x1.vout.t20                        1.38547e-05
x1.a_3329_8823.t16                 1.29033e-05
x1.ibias.t71                          0.599138
x1.a_3868_4185.t17                 1.21957e-05
x1.vss.t108                        1.20902e-05
x1.vss.t107                        1.20902e-05
x1.a_3868_4185.t46                 1.21947e-05
x1.vout.t79                        1.39337e-05
x1.a_n735_8972.t42                     1.60909
x1.vdd.t38                                 1.9
x1.vout.t34                        1.38543e-05
x1.ibias.t72                          0.599138
x1.a_n1962_4406.t20                1.22998e-05
x1.a_n1962_4406.t19                1.23019e-05
x1.ibias.t73                          0.599138
x1.vout.t11                        1.38552e-05
x1.vss.t106                        1.20902e-05
x1.vss.t105                        1.20902e-05
x1.a_3868_4185.t45                 1.21947e-05
x1.vss.t104                        1.22093e-05
x1.vss.t101                        1.22093e-05
x1.vss.t103                        1.22103e-05
x1.vss.t102                        1.30028e-05
x1.a_n1962_4406.t18                1.22996e-05
x1.ibias.t74                          0.599138
x1.vout.t31                        1.38545e-05
x1.vss.t100                         7.0667e-05
x1.vss.t99                         6.33195e-05
x1.vss.t254                        7.59931e-05
x1.en.t58                                  1.9
x1.a_8862_4192.t12                  0.00118714
x1.vout.t8                         1.38547e-05
x1.ibias.t75                          0.599138
x1.a_n1962_4406.t17                1.22996e-05
x1.a_n1962_4406.t16                1.22997e-05
x1.ibias.t76                          0.599138
x1.vout.t32                         1.3855e-05
x1.a_n1962_4406.t15                1.22997e-05
x1.ibias.t77                          0.599138
x1.vout.t4                         1.38556e-05
x1.a_3868_4185.t16                 1.21957e-05
x1.ibias.t78                          0.599138
x1.a_3329_8823.t21                 1.29033e-05
x1.vss.t98                         6.22987e-05
x1.vss.t97                         6.22977e-05
x1.ibias.t9                           0.599041
x1.a_n1962_4406.t93                1.22987e-05
x1.en.t59                                  1.9
x1.vss.t253                        1.21265e-05
x1.vout.t19                        1.38552e-05
x1.ibias.t79                          0.599138
x1.a_n1962_4406.t14                1.22996e-05
x1.a_n1962_4406.t92                1.22987e-05
x1.en.t60                                  1.9
x1.vss.t252                        1.21226e-05
x1.a_3868_4185.t15                 1.21937e-05
x1.ibias.t80                          0.599138
x1.a_3329_8823.t36                 1.29032e-05
x1.vss.t251                        9.29796e-05
x1.en.t61                                  1.9
x1.a_8862_4192.t11                   0.0011884
x1.vdd.t60                                 1.9
x1.vdd.t58                                 1.9
x1.vdd.t59                                 1.9
x1.a_n735_8972.t11                     1.60909
x1.vp.t12                                    0
x1.a_3329_8823.t40                  1.2912e-05
x1.vss.t250                        1.21265e-05
x1.en.t62                                  1.9
x1.a_n1962_4406.t91                1.22987e-05
x1.vss.t96                         1.21152e-05
x1.vss.t95                         1.21152e-05
x1.a_8862_4192.t10                  0.00118722
x1.en.t63                                  1.9
x1.vss.t249                        0.000102864
x1.a_3868_4185.t14                 1.21937e-05
x1.ibias.t81                          0.599138
x1.a_3329_8823.t32                 1.29031e-05
x1.vss.t247                        1.21226e-05
x1.en.t64                                  1.9
x1.a_n1962_4406.t90                1.22987e-05
x1.a_3329_8823.t23                 1.29033e-05
x1.ibias.t82                          0.599138
x1.a_3868_4185.t13                 1.21957e-05
x1.a_8862_4192.t9                   0.00118834
x1.en.t65                                  1.9
x1.vss.t246                        7.37027e-05
x1.vss.t245                        1.20985e-05
x1.en.t66                                  1.9
x1.a_3868_4185.t66                 1.21925e-05
x1.a_n735_8972.t1                      1.60909
x1.a_n935_8875.t39                      1.6082
x1.vdd.t9                                  1.9
x1.vdd.t35                                 1.9
x1.a_n735_8972.t43                     1.60909
x1.vout.t76                        1.39339e-05
x1.a_n1962_4406.t13                1.22997e-05
x1.ibias.t83                          0.599138
x1.vout.t43                        1.38544e-05
x1.a_3329_8823.t45                  1.2912e-05
x1.vn.t11                          1.39095e-05
x1.a_n935_8875.t4                       1.6082
x1.vout.t88                        1.39327e-05
x1.a_n735_8972.t44                     1.60909
x1.vdd.t108                                1.9
x1.vss.t244                        1.21283e-05
x1.en.t67                                  1.9
x1.a_n1962_4406.t89                1.22986e-05
x1.a_3868_4185.t12                 1.21957e-05
x1.ibias.t84                          0.599138
x1.a_3329_8823.t10                 1.29033e-05
x1.vss.t94                         1.20902e-05
x1.vss.t93                         1.20902e-05
x1.a_3868_4185.t44                 1.21948e-05
x1.a_3868_4185.t43                 1.21928e-05
x1.vss.t91                         1.20902e-05
x1.vss.t92                         1.20902e-05
x1.a_3329_8823.t7                   1.2903e-05
x1.ibias.t85                          0.599138
x1.a_3868_4185.t11                 1.21937e-05
x1.vdd.t10                                 1.9
x1.a_n935_8875.t40                      1.6082
x1.a_n735_8972.t2                      1.60909
x1.vss.t90                         1.22105e-05
x1.vss.t88                         1.22097e-05
x1.a_n935_8875.t17                      1.6082
x1.a_n935_8875.t3                       1.6082
x1.vn.t12                          1.39095e-05
x1.a_3329_8823.t57                 1.29111e-05
x1.vdd.t57                                 1.9
x1.vdd.t55                                 1.9
x1.vdd.t56                                 1.9
x1.vss.t243                        1.21245e-05
x1.en.t68                                  1.9
x1.a_n1962_4406.t88                1.22986e-05
x1.a_3868_4185.t10                 1.21949e-05
x1.ibias.t86                          0.599138
x1.a_3329_8823.t3                  1.29029e-05
x1.vss.t87                         6.78413e-05
x1.vss.t86                         6.04796e-05
x1.vss.t242                        7.35525e-05
x1.en.t69                                  1.9
x1.a_8862_4192.t8                   0.00118741
x1.a_3329_8823.t29                 1.29029e-05
x1.ibias.t87                          0.599138
x1.a_3868_4185.t9                  1.21937e-05
x1.vout.t74                        1.39339e-05
x1.a_n735_8972.t45                     1.60909
x1.vdd.t32                                 1.9
x1.a_3868_4185.t65                 1.21932e-05
x1.en.t70                                  1.9
x1.vss.t241                        1.20986e-05
x1.vdd.t102                                1.9
x1.a_n735_8972.t46                     1.60909
x1.vout.t84                        1.39321e-05
x1.a_8862_4192.t7                   0.00118747
x1.en.t71                                  1.9
x1.vss.t240                        9.24953e-05
x1.vss.t239                        1.20986e-05
x1.en.t72                                  1.9
x1.a_3868_4185.t64                 1.21932e-05
x1.vdd.t12                                 1.9
x1.a_n935_8875.t20                      1.6082
x1.a_n935_8875.t21                      1.6082
x1.a_n935_8875.t2                       1.6082
x1.vn.t13                          1.39095e-05
x1.a_3329_8823.t68                 1.29125e-05
x1.vdd.t54                                 1.9
x1.vdd.t53                                 1.9
x1.a_n935_8875.t16                      1.6082
x1.vss.t83                         1.22095e-05
x1.vss.t85                         1.22107e-05
x1.vss.t82                         1.21152e-05
x1.vss.t81                         1.21152e-05
x1.vout.t85                        1.39324e-05
x1.a_n735_8972.t47                     1.60909
x1.vdd.t104                                1.9
x1.vss.t80                         1.21152e-05
x1.vss.t79                         1.21152e-05
x1.a_n1962_4406.t67                1.22977e-05
x1.a_3868_4185.t8                  1.21937e-05
x1.ibias.t88                          0.599138
x1.a_3329_8823.t26                  1.2903e-05
x1.vss.t78                         1.21152e-05
x1.vss.t76                         1.21152e-05
x1.vdd.t107                                1.9
x1.a_n735_8972.t48                     1.60909
x1.vout.t87                        1.39335e-05
x1.a_n1962_4406.t66                1.23015e-05
x1.vss.t74                         1.21152e-05
x1.vss.t75                         1.21152e-05
x1.vss.t73                         1.22095e-05
x1.vss.t71                         1.22095e-05
x1.vss.t72                         1.22105e-05
x1.vdd.t24                                 1.9
x1.a_n735_8972.t49                     1.60909
x1.vout.t70                        1.39338e-05
x1.vss.t238                        1.21353e-05
x1.en.t73                                  1.9
x1.a_n1962_4406.t87                1.22988e-05
x1.vss.t70                         1.21152e-05
x1.vss.t68                         1.21152e-05
x1.vss.t69                         1.21152e-05
x1.vout.t72                        1.39314e-05
x1.a_n735_8972.t50                     1.60909
x1.vdd.t26                                 1.9
x1.vout.t41                        1.38543e-05
x1.ibias.t89                          0.599138
x1.a_n1962_4406.t12                1.23019e-05
x1.a_n1962_4406.t65                1.23015e-05
x1.vss.t66                         1.21152e-05
x1.vss.t67                         1.21152e-05
x1.a_n1962_4406.t86                1.22988e-05
x1.en.t74                                  1.9
x1.vss.t237                         1.2132e-05
x1.vss.t65                         1.22097e-05
x1.vss.t63                         1.22097e-05
x1.a_3329_8823.t49                 1.29112e-05
x1.a_3329_8823.t48                 1.29109e-05
x1.vss.t60                         1.22094e-05
x1.vss.t62                         1.22094e-05
x1.a_n1962_4406.t11                1.22997e-05
x1.ibias.t90                          0.599138
x1.vout.t47                        1.38544e-05
x1.vss.t59                         1.21152e-05
x1.vss.t58                         1.21152e-05
x1.a_n1962_4406.t64                1.23015e-05
x1.vdd.t1                                  1.9
x1.a_n935_8875.t18                      1.6082
x1.a_n935_8875.t19                      1.6082
x1.a_n735_8972.t10                     1.60909
x1.vp.t13                                    0
x1.a_3329_8823.t41                 1.29124e-05
x1.a_n935_8875.t1                       1.6082
x1.vn.t14                          1.39095e-05
x1.a_3329_8823.t72                 1.29118e-05
x1.vss.t312                        1.36728e-05
x1.vdd.t52                                 1.9
x1.vdd.t50                                 1.9
x1.vdd.t51                                 1.9
x1.vout.t44                        1.38544e-05
x1.ibias.t91                          0.599138
x1.a_n1962_4406.t10                1.22997e-05
x1.vss.t57                         1.21152e-05
x1.vss.t55                         1.21152e-05
x1.a_n1962_4406.t63                1.23015e-05
x1.a_3329_8823.t30                 1.29032e-05
x1.ibias.t92                          0.599138
x1.a_3868_4185.t7                   1.2195e-05
x1.vdd.t49                                 1.9
x1.vdd.t46                                 1.9
x1.vdd.t48                                 1.9
x1.vout.t82                        1.39338e-05
x1.a_n735_8972.t51                     1.60909
x1.vdd.t100                                1.9
x1.vout.t36                        1.38551e-05
x1.ibias.t93                          0.599138
x1.a_n1962_4406.t9                 1.23019e-05
x1.vout.t37                        1.38556e-05
x1.ibias.t94                          0.599138
x1.a_n1962_4406.t8                 1.23019e-05
x1.a_3329_8823.t22                 1.29031e-05
x1.ibias.t95                          0.599138
x1.a_3868_4185.t6                   1.2195e-05
x1.a_3329_8823.t60                 1.29118e-05
x1.vp.t14                                    0
x1.a_n735_8972.t9                      1.60909
x1.vss.t213                         1.3503e-05
x1.a_n1962_4406.t85                1.22971e-05
x1.en.t75                                  1.9
x1.vss.t236                          1.213e-05
x1.a_9909_7861.t1                      1.60909
x1.vout.t78                        1.38838e-05
x1.a_3868_4185.t42                 1.21948e-05
x1.vss.t53                         1.20902e-05
x1.vss.t54                         1.20902e-05
x1.vout.t80                        1.39342e-05
x1.a_n735_8972.t52                     1.60909
x1.vdd.t98                                 1.9
x1.a_n1962_4406.t7                 1.22995e-05
x1.ibias.t96                          0.599138
x1.vout.t12                        1.38551e-05
x1.a_n1962_4406.t6                 1.22995e-05
x1.ibias.t97                          0.599138
x1.vout.t5                         1.38556e-05
x1.a_3868_4185.t63                 1.21924e-05
x1.en.t76                                  1.9
x1.vss.t235                        1.20987e-05
x1.vss.t234                        1.20987e-05
x1.en.t77                                  1.9
x1.a_3868_4185.t62                 1.21932e-05
x1.vss.t233                        1.20986e-05
x1.en.t78                                  1.9
x1.a_3868_4185.t61                 1.21932e-05
x1.a_3868_4185.t41                 1.21948e-05
x1.vss.t50                         1.20902e-05
x1.vss.t52                         1.20902e-05
x1.a_n735_8972.t6                      1.60909
x1.a_n935_8875.t41                      1.6082
x1.vdd.t34                                 1.9
x1.a_n735_8972.t3                      1.60909
x1.vss.t47                         1.22093e-05
x1.vss.t49                         1.22105e-05
x1.vss.t48                         1.33012e-05
x1.a_n1962_4406.t84                1.22988e-05
x1.en.t79                                  1.9
x1.vss.t223                        1.21353e-05
x1.vss.t232                          1.213e-05
x1.en.t80                                  1.9
x1.a_n1962_4406.t83                1.22987e-05
x1.vout.t1                          1.3855e-05
x1.ibias.t98                          0.599138
x1.a_n1962_4406.t5                 1.22997e-05
x1.vss.t46                         1.21152e-05
x1.vss.t44                         1.21152e-05
x1.vss.t43                         7.08641e-05
x1.vss.t42                         6.35063e-05
x1.a_3868_4185.t60                 1.21924e-05
x1.en.t81                                  1.9
x1.vss.t231                        1.20986e-05
x1.a_3329_8823.t76                 1.29122e-05
x1.vp.t15                                    0
x1.a_n735_8972.t8                      1.60909
x1.a_n1962_4406.t62                1.22976e-05
x1.vss.t40                         1.21152e-05
x1.vss.t41                         1.21152e-05
x1.vss.t228                        1.21265e-05
x1.en.t82                                  1.9
x1.a_n1962_4406.t82                1.22986e-05
x1.vout.t7                         1.38556e-05
x1.ibias.t99                          0.599138
x1.a_n1962_4406.t4                 1.22997e-05
x1.a_n1962_4406.t61                1.22975e-05
x1.vss.t37                         1.21152e-05
x1.vss.t39                         1.21152e-05
x1.vss.t230                        1.21226e-05
x1.en.t83                                  1.9
x1.a_n1962_4406.t81                1.22985e-05
x1.vss.t229                        1.20987e-05
x1.en.t84                                  1.9
x1.a_3868_4185.t59                 1.21932e-05
x1.vss.t227                        7.55203e-05
x1.en.t85                                  1.9
x1.a_8862_4192.t6                   0.00118852
x1.vss.t226                        1.20986e-05
x1.en.t86                                  1.9
x1.a_3868_4185.t58                 1.21932e-05
x1.vss.t36                         1.21152e-05
x1.vss.t35                         1.21152e-05
x1.a_3868_4185.t5                  1.21937e-05
x1.ibias.t100                         0.599138
x1.a_3329_8823.t15                 1.29031e-05
x1.a_3868_4185.t4                  1.21937e-05
x1.ibias.t101                         0.599138
x1.a_3329_8823.t37                  1.2903e-05
x1.a_n1962_4406.t3                 1.23037e-05
x1.ibias.t102                         0.599138
x1.vout.t48                        1.38542e-05
x1.a_8862_4192.t5                   0.00118861
x1.en.t87                                  1.9
x1.vss.t225                        0.000104234
x1.vout.t60                        1.39332e-05
x1.a_n735_8972.t53                     1.60909
x1.vdd.t3                                  1.9
x1.vdd.t6                                  1.9
x1.a_n735_8972.t54                     1.60909
x1.vout.t61                        1.39327e-05
x1.a_n1962_4406.t80                1.22988e-05
x1.en.t88                                  1.9
x1.vss.t224                        1.21337e-05
x1.a_3329_8823.t33                 1.29031e-05
x1.ibias.t103                         0.599138
x1.a_3868_4185.t3                  1.21937e-05
x1.ibias.t8                           0.599036
x1.vss.t33                         5.67409e-05
x1.vss.t34                         5.67419e-05
x1.vss.t32                         5.86476e-05
x1.vss.t29                         5.86989e-05
x1.vss.t31                         7.34285e-05
x1.vout.t33                        1.38545e-05
x1.ibias.t104                         0.599138
x1.a_n1962_4406.t2                 1.22997e-05
x1.a_3329_8823.t20                  1.2903e-05
x1.ibias.t105                         0.599138
x1.a_3868_4185.t2                  1.21937e-05
x1.vss.t28                         1.20902e-05
x1.vss.t26                         1.20902e-05
x1.a_3868_4185.t40                 1.21948e-05
x1.vdd.t45                                 1.9
x1.vdd.t43                                 1.9
x1.vdd.t42                                 1.9
x1.vdd.t39                                 1.9
x1.vdd.t41                                 1.9
x1.a_3868_4185.t1                  1.21957e-05
x1.ibias.t106                         0.599138
x1.a_3329_8823.t31                 1.29033e-05
x1.a_3868_4185.t57                 1.21932e-05
x1.en.t89                                  1.9
x1.vss.t222                        1.20987e-05
x1.a_3329_8823.t19                 1.29029e-05
x1.ibias.t107                         0.599138
x1.a_3868_4185.t0                  1.21957e-05
x1.a_3868_4185.t56                 1.21932e-05
x1.en.t90                                  1.9
x1.vss.t221                        1.20986e-05
x1.a_n1962_4406.t1                 1.22996e-05
x1.ibias.t108                         0.599138
x1.vout.t27                         1.3855e-05
x1.vss.t25                         1.21152e-05
x1.vss.t24                         1.21152e-05
x1.a_n1962_4406.t60                1.23015e-05
x1.vss.t23                         6.84198e-05
x1.vss.t21                         6.10588e-05
x1.vss.t220                        7.40321e-05
x1.en.t91                                  1.9
x1.a_8862_4192.t4                   0.00118834
x1.a_n935_8875.t0                       1.6082
x1.vn.t15                          1.39095e-05
x1.a_3329_8823.t44                 1.29122e-05
x1.a_n1962_4406.t0                 1.23019e-05
x1.ibias.t109                         0.599138
x1.vout.t59                        1.38555e-05
x1.en.n0                                   1.9
x1.en.n3                                   1.9
x1.en.n7                                   1.9
x1.en.n11                                  1.9
x1.en.n15                                  1.9
x1.en.n38                                  1.9
x1.en.n41                                  1.9
x1.en.n44                                  1.9
x1.en.n50                                  1.9
x1.en.n56                                  1.9
x1.en.n62                                  1.9
x1.en.n68                                  1.9
x1.en.n74                                  1.9
x1.en.n80                                  1.9
x1.en.n19                                  1.9
x1.en.n22                                  1.9
x1.en.n26                                  1.9
x1.en.n30                                  1.9
x1.en.n34                                  1.9
x1.en.n87                                  1.9
x1.en.n89                                  1.9
x1.en.n88                                  1.9
x1.en.n2                                   1.9
x1.en.n1                                   1.9
x1.en.n5                                   1.9
x1.en.n4                                   1.9
x1.en.n9                                   1.9
x1.en.n8                                   1.9
x1.en.n13                                  1.9
x1.en.n12                                  1.9
x1.en.n17                                  1.9
x1.en.n16                                  1.9
x1.en.n39                                  1.9
x1.en.n40                                  1.9
x1.en.n42                                  1.9
x1.en.n43                                  1.9
x1.en.n45                                  1.9
x1.en.n46                                  1.9
x1.en.n47                                  1.9
x1.en.n48                                  1.9
x1.en.n51                                  1.9
x1.en.n52                                  1.9
x1.en.n53                                  1.9
x1.en.n54                                  1.9
x1.en.n57                                  1.9
x1.en.n58                                  1.9
x1.en.n59                                  1.9
x1.en.n60                                  1.9
x1.en.n63                                  1.9
x1.en.n64                                  1.9
x1.en.n65                                  1.9
x1.en.n66                                  1.9
x1.en.n69                                  1.9
x1.en.n70                                  1.9
x1.en.n71                                  1.9
x1.en.n72                                  1.9
x1.en.n75                                  1.9
x1.en.n76                                  1.9
x1.en.n77                                  1.9
x1.en.n78                                  1.9
x1.en.n81                                  1.9
x1.en.n82                                  1.9
x1.en.n20                                  1.9
x1.en.n21                                  1.9
x1.en.n23                                  1.9
x1.en.n24                                  1.9
x1.en.n27                                  1.9
x1.en.n28                                  1.9
x1.en.n31                                  1.9
x1.en.n32                                  1.9
x1.en.n35                                  1.9
x1.en.n36                                  1.9
x1.en.n84                                  1.9
x1.en.n83                                  1.9
x1.en.n90                                  1.9
x1.en.n49                                  1.9
x1.en.n25                                  1.9
x1.en.n29                                  1.9
x1.en.n37                                  1.9
x1.en.n6                                   1.9
x1.en.n61                                  1.9
x1.en.n73                                  1.9
x1.en.n10                                  1.9
x1.en.n14                                  1.9
x1.en.n18                                  1.9
x1.en.n33                                  1.9
x1.en.n55                                  1.9
x1.en.n67                                  1.9
x1.en.n79                                  1.9
x1.en.n86                                  1.9
x1.en.n85                                  1.9
x1.vss.n1977                       1.42972e-05
x1.vss.n1888                       5.86328e-05
x1.vss.n2092                        1.2912e-05
x1.vss.n1496                       1.22282e-05
x1.vss.n2383                        5.8428e-05
x1.vss.n123                        5.88149e-05
x1.vss.n1376                        1.2227e-05
x1.vss.n719                        1.22277e-05
x1.vss.n1211                       1.22029e-05
x1.vss.n825                        1.21951e-05
x1.vss.n2192                       1.43086e-05
x1.vss.n243                        1.43893e-05
x1.vss.n2109                       1.27546e-05
x1.vss.n668                        1.25885e-05
x1.vss.n2129                       1.35122e-05
x1.vss.n317                        1.34325e-05
x1.vss.n661                        1.34296e-05
x1.vss.n314                        1.35078e-05
x1.vss.n2337                       4.98554e-05
x1.vss.n165                        4.89524e-05
x1.vss.n1494                       1.22277e-05
x1.vss.n722                         1.2227e-05
x1.vss.n1905                       1.42162e-05
x1.vss.n1529                       1.41259e-05
x1.vss.n187                        4.90024e-05
x1.vss.n167                        4.99061e-05
x1.vss.n2224                       1.59964e-05
x1.vss.n213                        1.63453e-05
x1.vss.n590                        1.48698e-05
x1.vss.n211                        1.49681e-05
x1.vss.n1207                       1.22342e-05
x1.vss.n826                        1.22402e-05
x1.vss.n2090                       1.30076e-05
x1.vss.n1499                       1.31107e-05
x1.vss.n1886                       5.87051e-05
x1.vss.n1534                       5.87458e-05
x1.vss.n1879                       5.87051e-05
x1.vss.n1878                       5.87458e-05
x1.vss.n1639                       5.78634e-05
x1.vss.n127                        5.74383e-05
x1.vss.n524                        1.65992e-05
x1.vss.n523                        1.65894e-05
x1.vss.n568                        1.61722e-05
x1.vss.n567                        1.62888e-05
x1.vss.n1663                       5.83418e-05
x1.vss.n1662                       5.83132e-05
x1.vss.n1707                       5.86576e-05
x1.vss.n1706                       5.85983e-05
x1.vss.n2335                       4.81049e-05
x1.vss.n2226                        1.6662e-05
x1.vss.n164                        4.96244e-05
x1.vss.n2333                       4.87978e-05
x1.vss.n2332                       4.94197e-05
x1.vss.n2331                       4.92422e-05
x1.vss.n2227                       4.86909e-05
x1.vss.n2330                       4.90888e-05
x1.vss.n2329                       4.86075e-05
x1.vss.n2328                       4.89565e-05
x1.vss.n2327                       4.85385e-05
x1.vss.n2326                         4.848e-05
x1.vss.n2325                       4.88425e-05
x1.vss.n2324                       4.87443e-05
x1.vss.n2323                       4.84299e-05
x1.vss.n2322                       4.83869e-05
x1.vss.n2321                         4.866e-05
x1.vss.n2320                       4.85875e-05
x1.vss.n2319                       4.83501e-05
x1.vss.n2318                       4.83186e-05
x1.vss.n2317                       4.85255e-05
x1.vss.n2316                       4.84725e-05
x1.vss.n2315                       4.82917e-05
x1.vss.n2314                       4.82687e-05
x1.vss.n2313                       4.84274e-05
x1.vss.n2312                       4.83892e-05
x1.vss.n2311                       4.82494e-05
x1.vss.n2310                       4.82331e-05
x1.vss.n2309                       4.83572e-05
x1.vss.n2308                       4.83306e-05
x1.vss.n2307                       4.82196e-05
x1.vss.n2306                       4.82085e-05
x1.vss.n2305                       4.83089e-05
x1.vss.n2304                       4.82916e-05
x1.vss.n2303                       4.81997e-05
x1.vss.n2302                        4.8193e-05
x1.vss.n2301                       4.82783e-05
x1.vss.n2300                       4.82687e-05
x1.vss.n2299                       4.81881e-05
x1.vss.n2298                        4.8185e-05
x1.vss.n2297                       4.82626e-05
x1.vss.n2296                         4.826e-05
x1.vss.n2295                       4.81837e-05
x1.vss.n2294                        4.8184e-05
x1.vss.n2293                       4.82607e-05
x1.vss.n2292                       4.82647e-05
x1.vss.n2291                       4.81861e-05
x1.vss.n2290                       4.81899e-05
x1.vss.n2289                       4.82722e-05
x1.vss.n2288                       4.82832e-05
x1.vss.n2287                       4.81955e-05
x1.vss.n2286                       4.82031e-05
x1.vss.n2285                       4.82981e-05
x1.vss.n2284                       4.83172e-05
x1.vss.n2283                       4.82128e-05
x1.vss.n2282                       4.82248e-05
x1.vss.n2281                       4.83409e-05
x1.vss.n2280                       4.83696e-05
x1.vss.n2279                       4.82394e-05
x1.vss.n2278                       4.82569e-05
x1.vss.n2277                        4.8404e-05
x1.vss.n2276                       4.84449e-05
x1.vss.n2275                       4.82776e-05
x1.vss.n2274                       4.83021e-05
x1.vss.n2273                       4.84931e-05
x1.vss.n2272                       4.85496e-05
x1.vss.n2271                       4.83309e-05
x1.vss.n2270                       4.83645e-05
x1.vss.n2269                       4.86157e-05
x1.vss.n2268                       4.86928e-05
x1.vss.n2267                       4.84037e-05
x1.vss.n2266                       4.84493e-05
x1.vss.n2265                       4.87826e-05
x1.vss.n2264                        4.8887e-05
x1.vss.n2263                       4.85026e-05
x1.vss.n2262                       4.85647e-05
x1.vss.n2261                       4.90081e-05
x1.vss.n2260                       4.91487e-05
x1.vss.n2259                        4.8638e-05
x1.vss.n2258                       4.87265e-05
x1.vss.n2257                       4.93116e-05
x1.vss.n2256                       4.95002e-05
x1.vss.n2255                       4.88395e-05
x1.vss.n2254                       4.97176e-05
x1.vss.n2253                        5.0504e-05
x1.vss.n2336                       4.91862e-05
x1.vss.n2252                       5.07789e-05
x1.vss.n2251                       5.02739e-05
x1.vss.n166                        4.97381e-05
x1.vss.n2250                       5.10759e-05
x1.vss.n162                        5.06625e-05
x1.vss.n2342                       5.02456e-05
x1.vss.n2249                        5.1391e-05
x1.vss.n161                        5.10535e-05
x1.vss.n2343                       5.07195e-05
x1.vss.n2248                       5.17209e-05
x1.vss.n160                        5.14421e-05
x1.vss.n2344                       5.11677e-05
x1.vss.n2247                        5.2063e-05
x1.vss.n2246                       5.18278e-05
x1.vss.n159                        5.15962e-05
x1.vss.n2245                       5.24153e-05
x1.vss.n155                         5.2211e-05
x1.vss.n2350                       5.20091e-05
x1.vss.n2244                       5.27766e-05
x1.vss.n154                        5.25927e-05
x1.vss.n2351                         5.241e-05
x1.vss.n2243                        5.3146e-05
x1.vss.n153                        5.29737e-05
x1.vss.n2352                       5.28014e-05
x1.vss.n2242                       5.35229e-05
x1.vss.n2241                       5.33546e-05
x1.vss.n152                        5.31853e-05
x1.vss.n2240                       5.39071e-05
x1.vss.n148                        5.37361e-05
x1.vss.n2358                       5.35632e-05
x1.vss.n2239                       5.42988e-05
x1.vss.n147                        5.41189e-05
x1.vss.n2359                       5.39361e-05
x1.vss.n2238                       5.46985e-05
x1.vss.n146                        5.45035e-05
x1.vss.n2360                       5.43049e-05
x1.vss.n2237                       5.51066e-05
x1.vss.n2236                       5.48906e-05
x1.vss.n145                          5.467e-05
x1.vss.n2235                       5.55242e-05
x1.vss.n141                        5.52806e-05
x1.vss.n2366                       5.50317e-05
x1.vss.n2234                       5.59525e-05
x1.vss.n140                        5.56743e-05
x1.vss.n2367                       5.53899e-05
x1.vss.n2233                       5.63929e-05
x1.vss.n139                        5.60723e-05
x1.vss.n2368                       5.57445e-05
x1.vss.n2232                       5.68474e-05
x1.vss.n2231                        5.6475e-05
x1.vss.n135                        5.60953e-05
x1.vss.n2230                       5.73181e-05
x1.vss.n134                        5.68826e-05
x1.vss.n2374                       5.64411e-05
x1.vss.n2229                       5.78079e-05
x1.vss.n133                        5.72943e-05
x1.vss.n2375                       5.67815e-05
x1.vss.n2228                       5.83202e-05
x1.vss.n132                        5.77055e-05
x1.vss.n2376                        5.7115e-05
x1.vss.n124                        5.81002e-05
x1.vss.n122                        5.88594e-05
x1.vss.n126                        5.74406e-05
x1.vss.n2384                       5.94319e-05
x1.vss.n2382                       5.77574e-05
x1.vss.n121                        5.93757e-05
x1.vss.n1715                       5.88088e-05
x1.vss.n1714                       5.92463e-05
x1.vss.n1713                        5.9136e-05
x1.vss.n1638                       5.87724e-05
x1.vss.n1712                       5.90416e-05
x1.vss.n1711                       5.87309e-05
x1.vss.n1710                        5.8692e-05
x1.vss.n1709                       5.89609e-05
x1.vss.n1708                       5.88919e-05
x1.vss.n1705                       5.87744e-05
x1.vss.n1704                       5.87234e-05
x1.vss.n1703                       5.85724e-05
x1.vss.n1702                       5.85498e-05
x1.vss.n1701                        5.8679e-05
x1.vss.n1700                       5.86402e-05
x1.vss.n1699                       5.85301e-05
x1.vss.n1698                       5.85129e-05
x1.vss.n1697                       5.86062e-05
x1.vss.n1696                       5.85764e-05
x1.vss.n1695                       5.84977e-05
x1.vss.n1694                       5.84843e-05
x1.vss.n1693                         5.855e-05
x1.vss.n1692                       5.85264e-05
x1.vss.n1691                       5.84723e-05
x1.vss.n1690                       5.84615e-05
x1.vss.n1689                       5.85052e-05
x1.vss.n1688                        5.8486e-05
x1.vss.n1687                       5.84518e-05
x1.vss.n1686                       5.84427e-05
x1.vss.n1685                       5.84682e-05
x1.vss.n1684                       5.84515e-05
x1.vss.n1683                       5.84343e-05
x1.vss.n1682                       5.84262e-05
x1.vss.n1681                       5.84356e-05
x1.vss.n1680                       5.84201e-05
x1.vss.n1679                       5.84183e-05
x1.vss.n1678                       5.84105e-05
x1.vss.n1677                       5.84047e-05
x1.vss.n1676                        5.8389e-05
x1.vss.n1675                       5.84025e-05
x1.vss.n1674                       5.83942e-05
x1.vss.n1673                       5.83728e-05
x1.vss.n1672                       5.83556e-05
x1.vss.n1671                       5.83855e-05
x1.vss.n1670                       5.83761e-05
x1.vss.n1669                       5.83371e-05
x1.vss.n1668                       5.83169e-05
x1.vss.n1667                       5.83658e-05
x1.vss.n1666                       5.83545e-05
x1.vss.n1665                       5.82945e-05
x1.vss.n1664                       5.82695e-05
x1.vss.n1661                       5.82132e-05
x1.vss.n1660                       5.81807e-05
x1.vss.n1659                       5.82967e-05
x1.vss.n1658                       5.82776e-05
x1.vss.n1657                       5.81431e-05
x1.vss.n1656                       5.80996e-05
x1.vss.n1655                       5.82555e-05
x1.vss.n1654                       5.82299e-05
x1.vss.n1653                       5.80493e-05
x1.vss.n1652                       5.79911e-05
x1.vss.n1651                       5.82003e-05
x1.vss.n1650                        5.8166e-05
x1.vss.n1649                       5.79238e-05
x1.vss.n1648                       5.78459e-05
x1.vss.n1647                       5.81261e-05
x1.vss.n1646                       5.80795e-05
x1.vss.n1645                       5.77556e-05
x1.vss.n1644                       5.76513e-05
x1.vss.n1643                       5.80242e-05
x1.vss.n1642                       5.79557e-05
x1.vss.n1641                       5.75305e-05
x1.vss.n1640                       5.73912e-05
x1.vss.n129                        5.69278e-05
x1.vss.n1718                       5.80477e-05
x1.vss.n2381                        5.7225e-05
x1.vss.n2380                       5.67455e-05
x1.vss.n2379                       5.65421e-05
x1.vss.n128                        5.69761e-05
x1.vss.n2378                       5.63199e-05
x1.vss.n2377                       5.67066e-05
x1.vss.n131                        5.64224e-05
x1.vss.n130                        5.60806e-05
x1.vss.n2373                       5.61266e-05
x1.vss.n2372                       5.58265e-05
x1.vss.n2371                       5.55592e-05
x1.vss.n136                         5.5821e-05
x1.vss.n2370                       5.52804e-05
x1.vss.n2369                       5.55072e-05
x1.vss.n138                        5.51862e-05
x1.vss.n137                        5.49917e-05
x1.vss.n2365                        5.4859e-05
x1.vss.n2364                       5.46945e-05
x1.vss.n2363                       5.43901e-05
x1.vss.n142                        5.45265e-05
x1.vss.n2362                       5.40797e-05
x1.vss.n2361                       5.41891e-05
x1.vss.n144                        5.38474e-05
x1.vss.n143                        5.37645e-05
x1.vss.n2357                       5.35017e-05
x1.vss.n2356                       5.34458e-05
x1.vss.n2355                       5.31245e-05
x1.vss.n149                        5.31522e-05
x1.vss.n2354                       5.28021e-05
x1.vss.n2353                       5.27989e-05
x1.vss.n151                        5.24419e-05
x1.vss.n150                        5.24798e-05
x1.vss.n2349                       5.20809e-05
x1.vss.n2348                       5.21591e-05
x1.vss.n2347                       5.18419e-05
x1.vss.n156                        5.17155e-05
x1.vss.n2346                       5.15302e-05
x1.vss.n2345                       5.13453e-05
x1.vss.n158                          5.097e-05
x1.vss.n157                        5.12266e-05
x1.vss.n2341                       5.05908e-05
x1.vss.n2340                       5.09342e-05
x1.vss.n2339                       5.06569e-05
x1.vss.n163                        5.02128e-05
x1.vss.n2338                        5.0399e-05
x1.vss.n1785                       5.94421e-05
x1.vss.n1617                       5.90522e-05
x1.vss.n1616                       5.87247e-05
x1.vss.n1784                       5.94468e-05
x1.vss.n1783                       5.90403e-05
x1.vss.n1782                        5.8679e-05
x1.vss.n1779                       5.90058e-05
x1.vss.n1778                       5.94421e-05
x1.vss.n1780                       5.84702e-05
x1.vss.n1777                       5.94353e-05
x1.vss.n1720                       5.89703e-05
x1.vss.n1719                       5.82069e-05
x1.vss.n1776                       5.94302e-05
x1.vss.n1775                       5.89518e-05
x1.vss.n125                        5.79265e-05
x1.vss.n1536                       5.87842e-05
x1.vss.n1531                       5.87009e-05
x1.vss.n1877                        5.8764e-05
x1.vss.n1538                       5.87925e-05
x1.vss.n1876                       5.87359e-05
x1.vss.n1721                       5.88021e-05
x1.vss.n1537                       5.87818e-05
x1.vss.n1539                       5.87634e-05
x1.vss.n1722                       5.88125e-05
x1.vss.n1543                       5.87984e-05
x1.vss.n1870                       5.87861e-05
x1.vss.n1723                       5.88236e-05
x1.vss.n1544                       5.88139e-05
x1.vss.n1869                       5.88055e-05
x1.vss.n1724                       5.88351e-05
x1.vss.n1545                       5.88284e-05
x1.vss.n1868                       5.88227e-05
x1.vss.n1726                       5.88469e-05
x1.vss.n1725                       5.88423e-05
x1.vss.n1546                       5.88384e-05
x1.vss.n1727                       5.88588e-05
x1.vss.n1550                       5.88557e-05
x1.vss.n1862                        5.8853e-05
x1.vss.n1728                       5.88709e-05
x1.vss.n1551                       5.88688e-05
x1.vss.n1861                        5.8867e-05
x1.vss.n1729                       5.88831e-05
x1.vss.n1552                       5.88817e-05
x1.vss.n1860                       5.88804e-05
x1.vss.n1731                       5.88954e-05
x1.vss.n1730                       5.88944e-05
x1.vss.n1553                       5.88936e-05
x1.vss.n1732                       5.89077e-05
x1.vss.n1557                       5.89071e-05
x1.vss.n1854                       5.89065e-05
x1.vss.n1733                       5.89201e-05
x1.vss.n1558                       5.89196e-05
x1.vss.n1853                       5.89192e-05
x1.vss.n1734                       5.89324e-05
x1.vss.n1559                       5.89321e-05
x1.vss.n1852                       5.89319e-05
x1.vss.n1736                       5.89448e-05
x1.vss.n1735                       5.89446e-05
x1.vss.n1560                       5.89445e-05
x1.vss.n1737                       5.89572e-05
x1.vss.n1564                       5.89571e-05
x1.vss.n1846                        5.8957e-05
x1.vss.n1738                       5.89696e-05
x1.vss.n1565                       5.89695e-05
x1.vss.n1845                       5.89695e-05
x1.vss.n1739                        5.8982e-05
x1.vss.n1566                       5.89819e-05
x1.vss.n1844                       5.89819e-05
x1.vss.n1741                       5.89944e-05
x1.vss.n1740                       5.89944e-05
x1.vss.n1567                       5.89944e-05
x1.vss.n1742                       5.90068e-05
x1.vss.n1571                       5.90068e-05
x1.vss.n1838                       5.90068e-05
x1.vss.n1743                       5.90192e-05
x1.vss.n1572                       5.90192e-05
x1.vss.n1837                       5.90192e-05
x1.vss.n1744                       5.90315e-05
x1.vss.n1573                       5.90316e-05
x1.vss.n1836                       5.90317e-05
x1.vss.n1746                       5.90439e-05
x1.vss.n1745                        5.9044e-05
x1.vss.n1574                       5.90441e-05
x1.vss.n1747                       5.90563e-05
x1.vss.n1578                       5.90564e-05
x1.vss.n1830                       5.90565e-05
x1.vss.n1748                       5.90687e-05
x1.vss.n1579                       5.90688e-05
x1.vss.n1829                       5.90689e-05
x1.vss.n1749                       5.90811e-05
x1.vss.n1580                       5.90811e-05
x1.vss.n1828                       5.90812e-05
x1.vss.n1751                       5.90934e-05
x1.vss.n1750                       5.90935e-05
x1.vss.n1581                       5.90936e-05
x1.vss.n1752                       5.91058e-05
x1.vss.n1585                       5.91058e-05
x1.vss.n1822                       5.91059e-05
x1.vss.n1753                       5.91182e-05
x1.vss.n1586                       5.91182e-05
x1.vss.n1821                       5.91182e-05
x1.vss.n1754                       5.91306e-05
x1.vss.n1587                       5.91304e-05
x1.vss.n1820                       5.91304e-05
x1.vss.n1756                       5.91429e-05
x1.vss.n1755                       5.91427e-05
x1.vss.n1588                       5.91425e-05
x1.vss.n1757                       5.91553e-05
[...]
x1.a_3868_4185.n12                  1.2194e-05
x1.a_3868_4185.n11                 1.21935e-05
x1.a_3868_4185.n29                 1.21927e-05
x1.a_3868_4185.n32                  1.2194e-05
x1.a_3868_4185.n31                 1.21947e-05
x1.a_3868_4185.n34                  1.2194e-05
x1.a_3868_4185.n33                 1.21927e-05
x1.a_3868_4185.n36                  1.2194e-05
x1.a_3868_4185.n35                 1.21947e-05
x1.a_3868_4185.n38                  1.2194e-05
x1.a_3868_4185.n37                 1.21928e-05
x1.a_3868_4185.n40                  1.2194e-05
x1.a_3868_4185.n39                 1.21948e-05
x1.a_3868_4185.n42                  1.2194e-05
x1.a_3868_4185.n41                 1.21948e-05
x1.a_3868_4185.n14                 1.21935e-05
x1.a_3868_4185.n17                  1.2194e-05
x1.a_3868_4185.n16                 1.21935e-05
x1.a_3868_4185.n19                  1.2194e-05
x1.a_3868_4185.n18                 1.21935e-05
x1.a_3868_4185.n21                  1.2194e-05
x1.a_3868_4185.n20                 1.21935e-05
x1.a_3868_4185.n23                  1.2194e-05
x1.a_3868_4185.n22                 1.21935e-05
x1.a_3868_4185.n25                  1.2194e-05
x1.a_3868_4185.n24                 1.21935e-05
x1.a_3868_4185.n27                  1.2194e-05
x1.a_3868_4185.n26                 1.21955e-05
x1.a_3868_4185.n45                 1.21935e-05
x1.a_3868_4185.n48                  1.2194e-05
x1.a_3868_4185.n47                 1.21935e-05
x1.a_3868_4185.n50                  1.2194e-05
x1.a_3868_4185.n49                 1.21935e-05
x1.a_3868_4185.n52                  1.2194e-05
x1.a_3868_4185.n51                 1.21935e-05
x1.a_3868_4185.n54                  1.2194e-05
x1.a_3868_4185.n53                 1.21935e-05
x1.a_3868_4185.n56                  1.2194e-05
x1.a_3868_4185.n55                 1.21935e-05
x1.a_3868_4185.n58                  1.2194e-05
x1.a_3868_4185.n57                 1.21955e-05
x1.a_3868_4185.n60                 1.21948e-05
x1.a_3868_4185.n63                  1.2194e-05
x1.a_3868_4185.n62                 1.21928e-05
x1.a_3868_4185.n65                  1.2194e-05
x1.a_3868_4185.n64                 1.21948e-05
x1.a_3868_4185.n67                  1.2194e-05
x1.a_3868_4185.n66                 1.21928e-05
x1.a_3868_4185.n69                  1.2194e-05
x1.a_3868_4185.n68                 1.21948e-05
x1.a_3868_4185.n71                  1.2194e-05
x1.a_3868_4185.n70                 1.21928e-05
x1.a_3868_4185.n73                  1.2194e-05
x1.a_3868_4185.n72                 1.21948e-05
x1.a_3868_4185.n77                 1.21955e-05
x1.a_3868_4185.n76                  1.2194e-05
x1.a_3868_4185.n43                  1.2194e-05
x1.a_3868_4185.n74                  1.2194e-05
x1.a_3868_4185.n75                  1.2194e-05
x1.vout.n15                        1.39119e-05
x1.vout.n13                        1.39325e-05
x1.vout.n2                         1.39129e-05
x1.vout.n0                         1.39335e-05
x1.vout.n1                         1.39333e-05
x1.vout.n4                         1.39126e-05
x1.vout.n3                         1.39331e-05
x1.vout.n6                         1.39123e-05
x1.vout.n5                         1.39327e-05
x1.vout.n8                         1.39118e-05
x1.vout.n7                         1.39323e-05
x1.vout.n10                        1.39112e-05
x1.vout.n9                         1.39317e-05
x1.vout.n12                        1.39105e-05
x1.vout.n11                        1.39309e-05
x1.vout.n14                        1.39323e-05
x1.vout.n17                        1.39117e-05
x1.vout.n16                        1.39321e-05
x1.vout.n19                        1.39113e-05
x1.vout.n18                        1.39318e-05
x1.vout.n21                        1.39108e-05
x1.vout.n20                        1.39313e-05
x1.vout.n23                        1.39102e-05
x1.vout.n22                        1.39307e-05
x1.vout.n25                        1.39095e-05
x1.vout.n24                          1.393e-05
x1.vout.n68                        1.38582e-05
x1.vout.n66                        1.38546e-05
x1.vout.n63                        1.38583e-05
x1.vout.n61                        1.38547e-05
x1.vout.n58                        1.38583e-05
x1.vout.n56                        1.38548e-05
x1.vout.n53                        1.38585e-05
x1.vout.n51                         1.3855e-05
x1.vout.n48                        1.38587e-05
x1.vout.n46                        1.38551e-05
x1.vout.n43                        1.38589e-05
x1.vout.n41                        1.38554e-05
x1.vout.n38                        1.38592e-05
x1.vout.n36                        1.38556e-05
x1.vout.n33                        1.38595e-05
x1.vout.n31                        1.38559e-05
x1.vout.n73                        1.38581e-05
x1.vout.n71                        1.38545e-05
x1.vout.n28                        1.38598e-05
x1.vout.n26                        1.38563e-05
x1.vout.n75                        1.38581e-05
x1.vout.n74                        1.38546e-05
x1.vout.n72                        1.38546e-05
x1.vout.n70                        1.38582e-05
x1.vout.n69                        1.38547e-05
x1.vout.n67                        1.38546e-05
x1.vout.n65                        1.38583e-05
x1.vout.n64                        1.38548e-05
x1.vout.n62                        1.38547e-05
x1.vout.n60                        1.38584e-05
x1.vout.n59                        1.38549e-05
x1.vout.n57                        1.38548e-05
x1.vout.n55                        1.38586e-05
x1.vout.n54                        1.38551e-05
x1.vout.n52                         1.3855e-05
x1.vout.n50                        1.38587e-05
x1.vout.n49                        1.38552e-05
x1.vout.n47                        1.38551e-05
x1.vout.n45                         1.3859e-05
x1.vout.n44                        1.38555e-05
x1.vout.n42                        1.38554e-05
x1.vout.n40                        1.38592e-05
x1.vout.n39                        1.38557e-05
x1.vout.n37                        1.38556e-05
x1.vout.n35                        1.38596e-05
x1.vout.n34                         1.3856e-05
x1.vout.n32                         1.3856e-05
x1.vout.n30                        1.38599e-05
x1.vout.n29                        1.38563e-05
x1.vout.n27                        1.38563e-05
x1.vout.n86                        1.39085e-05
x1.vout.n85                        1.38838e-05
x1.vout.n84                          1.386e-05
x1.vout.n87                        1.39095e-05
x1.vout.n76                        1.38583e-05
x1.vout.n78                        1.38585e-05
x1.vout.n80                        1.38589e-05
x1.vout.n82                        1.38594e-05
x1.vout.n77                        1.38584e-05
x1.vout.n79                        1.38587e-05
x1.vout.n81                        1.38591e-05
x1.vout.n83                        1.38597e-05
x1.a_n1962_4406.n21                1.22999e-05
x1.a_n1962_4406.n19                1.23016e-05
x1.a_n1962_4406.n115               1.22998e-05
x1.a_n1962_4406.n113               1.23015e-05
x1.a_n1962_4406.n2                 1.22999e-05
x1.a_n1962_4406.n0                 1.23033e-05
x1.a_n1962_4406.n8                    1.23e-05
x1.a_n1962_4406.n6                 1.23033e-05
x1.a_n1962_4406.n58                   1.23e-05
x1.a_n1962_4406.n56                1.23033e-05
x1.a_n1962_4406.n25                1.22998e-05
x1.a_n1962_4406.n23                1.23014e-05
x1.a_n1962_4406.n39                1.22998e-05
x1.a_n1962_4406.n37                1.23015e-05
x1.a_n1962_4406.n5                 1.22999e-05
x1.a_n1962_4406.n3                 1.23033e-05
x1.a_n1962_4406.n98                1.22998e-05
x1.a_n1962_4406.n96                1.23015e-05
x1.a_n1962_4406.n79                1.22999e-05
x1.a_n1962_4406.n77                1.23015e-05
x1.a_n1962_4406.n83                1.22998e-05
x1.a_n1962_4406.n81                1.23015e-05
x1.a_n1962_4406.n48                1.22998e-05
x1.a_n1962_4406.n36                1.23015e-05
x1.a_n1962_4406.n52                1.22999e-05
x1.a_n1962_4406.n22                1.23015e-05
x1.a_n1962_4406.n92                1.22999e-05
x1.a_n1962_4406.n80                1.23015e-05
x1.a_n1962_4406.n110               1.22999e-05
x1.a_n1962_4406.n109               1.22993e-05
x1.a_n1962_4406.n112               1.22998e-05
x1.a_n1962_4406.n111               1.22992e-05
x1.a_n1962_4406.n119               1.22998e-05
x1.a_n1962_4406.n118               1.22992e-05
x1.a_n1962_4406.n117               1.22998e-05
x1.a_n1962_4406.n116               1.22992e-05
x1.a_n1962_4406.n114               1.22991e-05
x1.a_n1962_4406.n76                1.22999e-05
x1.a_n1962_4406.n75                1.22993e-05
x1.a_n1962_4406.n1                 1.22994e-05
x1.a_n1962_4406.n72                1.22999e-05
x1.a_n1962_4406.n71                1.22994e-05
x1.a_n1962_4406.n18                1.22999e-05
x1.a_n1962_4406.n17                1.22993e-05
x1.a_n1962_4406.n16                1.22999e-05
x1.a_n1962_4406.n15                1.22993e-05
x1.a_n1962_4406.n14                1.22999e-05
x1.a_n1962_4406.n13                1.22993e-05
x1.a_n1962_4406.n12                1.22999e-05
x1.a_n1962_4406.n11                1.22993e-05
x1.a_n1962_4406.n10                   1.23e-05
x1.a_n1962_4406.n9                 1.22993e-05
x1.a_n1962_4406.n7                 1.22993e-05
x1.a_n1962_4406.n68                1.22999e-05
x1.a_n1962_4406.n67                1.22993e-05
x1.a_n1962_4406.n66                1.22999e-05
x1.a_n1962_4406.n65                1.22993e-05
x1.a_n1962_4406.n64                1.22999e-05
x1.a_n1962_4406.n63                1.22993e-05
x1.a_n1962_4406.n62                1.22999e-05
x1.a_n1962_4406.n61                1.22993e-05
x1.a_n1962_4406.n60                1.22999e-05
x1.a_n1962_4406.n59                1.22993e-05
x1.a_n1962_4406.n57                1.22993e-05
x1.a_n1962_4406.n55                1.22999e-05
x1.a_n1962_4406.n54                1.22993e-05
x1.a_n1962_4406.n20                1.22994e-05
x1.a_n1962_4406.n51                1.22998e-05
x1.a_n1962_4406.n50                1.22993e-05
x1.a_n1962_4406.n35                1.22998e-05
x1.a_n1962_4406.n34                1.22992e-05
x1.a_n1962_4406.n33                1.22998e-05
x1.a_n1962_4406.n32                1.22992e-05
x1.a_n1962_4406.n31                1.22998e-05
x1.a_n1962_4406.n30                1.22992e-05
x1.a_n1962_4406.n29                1.22998e-05
x1.a_n1962_4406.n28                1.22991e-05
x1.a_n1962_4406.n27                1.22998e-05
x1.a_n1962_4406.n26                1.22991e-05
x1.a_n1962_4406.n24                1.22991e-05
x1.a_n1962_4406.n47                1.22998e-05
x1.a_n1962_4406.n46                1.22976e-05
x1.a_n1962_4406.n45                1.22998e-05
x1.a_n1962_4406.n44                1.23014e-05
x1.a_n1962_4406.n43                1.22998e-05
x1.a_n1962_4406.n42                1.22976e-05
x1.a_n1962_4406.n41                1.22998e-05
x1.a_n1962_4406.n40                1.23014e-05
x1.a_n1962_4406.n38                1.22975e-05
x1.a_n1962_4406.n4                 1.22994e-05
x1.a_n1962_4406.n106               1.22998e-05
x1.a_n1962_4406.n105               1.22993e-05
x1.a_n1962_4406.n104               1.22998e-05
x1.a_n1962_4406.n103               1.22992e-05
x1.a_n1962_4406.n102               1.22998e-05
x1.a_n1962_4406.n101               1.22992e-05
x1.a_n1962_4406.n100               1.22998e-05
x1.a_n1962_4406.n99                1.22992e-05
x1.a_n1962_4406.n97                1.22992e-05
x1.a_n1962_4406.n95                1.22998e-05
x1.a_n1962_4406.n94                1.22993e-05
x1.a_n1962_4406.n78                1.22993e-05
x1.a_n1962_4406.n91                1.22998e-05
x1.a_n1962_4406.n90                1.22977e-05
x1.a_n1962_4406.n89                1.22998e-05
x1.a_n1962_4406.n88                1.23015e-05
x1.a_n1962_4406.n87                1.22998e-05
x1.a_n1962_4406.n86                1.22976e-05
x1.a_n1962_4406.n85                1.22998e-05
x1.a_n1962_4406.n84                1.23015e-05
x1.a_n1962_4406.n82                1.22976e-05
x1.a_n1962_4406.n121               1.22992e-05
x1.a_n1962_4406.n120               1.22998e-05
x1.a_n1962_4406.n49                1.22998e-05
x1.a_n1962_4406.n53                1.22999e-05
x1.a_n1962_4406.n70                1.22999e-05
x1.a_n1962_4406.n69                1.22999e-05
x1.a_n1962_4406.n74                1.22999e-05
x1.a_n1962_4406.n73                1.22999e-05
x1.a_n1962_4406.n93                1.22999e-05
x1.a_n1962_4406.n108               1.22999e-05
x1.a_n1962_4406.n107               1.22998e-05
x1.vp.n0                                     0
x1.vp.n1                                     0
x1.vp.n3                                     0
x1.vp.n7                                     0
x1.vp.n9                                     0
x1.vp.n13                                    0
x1.vp.n4                                     0
x1.vp.n5                                     0
x1.vp.n10                                    0
x1.vp.n11                                    0
x1.vp.n14                                    0
x1.vp.n2                                     0
x1.vp.n8                                     0
x1.vp.n6                                     0
x1.vp.n12                                    0
x1.a_n735_8972.n50                     1.60909
x1.a_n735_8972.n49                     1.60909
x1.a_n735_8972.n52                     1.60909
x1.a_n735_8972.n51                     1.60909
x1.a_n735_8972.n47                     1.60909
x1.a_n735_8972.n0                      1.60909
x1.a_n735_8972.n48                     1.60909
x1.a_n735_8972.n36                     1.60909
x1.a_n735_8972.n33                     1.60909
x1.a_n735_8972.n30                     1.60909
x1.a_n735_8972.n27                     1.60909
x1.a_n735_8972.n24                     1.60909
x1.a_n735_8972.n21                     1.60909
x1.a_n735_8972.n18                     1.60909
x1.a_n735_8972.n37                     1.60909
x1.a_n735_8972.n38                     1.60909
x1.a_n735_8972.n34                     1.60909
x1.a_n735_8972.n35                     1.60909
x1.a_n735_8972.n31                     1.60909
x1.a_n735_8972.n32                     1.60909
x1.a_n735_8972.n28                     1.60909
x1.a_n735_8972.n29                     1.60909
x1.a_n735_8972.n25                     1.60909
x1.a_n735_8972.n26                     1.60909
x1.a_n735_8972.n22                     1.60909
x1.a_n735_8972.n23                     1.60909
x1.a_n735_8972.n19                     1.60909
x1.a_n735_8972.n20                     1.60909
x1.a_n735_8972.n5                      1.60909
x1.a_n735_8972.n4                      1.60909
x1.a_n735_8972.n11                     1.60909
x1.a_n735_8972.n10                     1.60909
x1.a_n735_8972.n17                     1.60909
x1.a_n735_8972.n16                     1.60909
x1.a_n735_8972.n3                      1.60909
x1.a_n735_8972.n1                      1.60909
x1.a_n735_8972.n8                      1.60909
x1.a_n735_8972.n6                      1.60909
x1.a_n735_8972.n14                     1.60909
x1.a_n735_8972.n12                     1.60909
x1.a_n735_8972.n13                     1.60909
x1.a_n735_8972.n2                      1.60909
x1.a_n735_8972.n7                      1.60909
x1.a_n735_8972.n45                     1.60909
x1.a_n735_8972.n46                     1.60909
x1.a_n735_8972.n44                     1.60909
x1.a_n735_8972.n39                     1.60909
x1.a_n735_8972.n40                     1.60909
x1.a_n735_8972.n41                     1.60909
x1.a_n735_8972.n42                     1.60909
x1.a_n735_8972.n43                     1.60909
x1.a_n735_8972.n9                      1.60909
x1.a_n735_8972.n15                     1.60909
x1.vn.n0                           1.39095e-05
x1.vn.n1                           1.39095e-05
x1.vn.n3                           1.39095e-05
x1.vn.n7                           1.39095e-05
x1.vn.n9                           1.39095e-05
x1.vn.n13                          1.39095e-05
x1.vn.n5                           1.39095e-05
x1.vn.n4                           1.39095e-05
x1.vn.n11                          1.39095e-05
x1.vn.n10                          1.39095e-05
x1.vn.n14                          1.39095e-05
x1.vn.n2                           1.39095e-05
x1.vn.n8                           1.39095e-05
x1.vn.n6                           1.39095e-05
x1.vn.n12                          1.39095e-05
x1.a_n935_8875.n41                      1.6082
x1.a_n935_8875.n35                      1.6082
x1.a_n935_8875.n6                       1.6082
x1.a_n935_8875.n4                       1.6082
x1.a_n935_8875.n19                      1.6082
x1.a_n935_8875.n13                      1.6082
x1.a_n935_8875.n27                      1.6082
x1.a_n935_8875.n25                      1.6082
x1.a_n935_8875.n15                      1.6082
x1.a_n935_8875.n37                      1.6082
x1.a_n935_8875.n11                      1.6082
x1.a_n935_8875.n10                      1.6082
x1.a_n935_8875.n32                      1.6082
x1.a_n935_8875.n31                      1.6082
x1.a_n935_8875.n5                       1.6082
x1.a_n935_8875.n26                      1.6082
x1.a_n935_8875.n8                       1.6082
x1.a_n935_8875.n21                      1.6082
x1.a_n935_8875.n14                      1.6082
x1.a_n935_8875.n29                      1.6082
x1.a_n935_8875.n43                      1.6082
x1.a_n935_8875.n36                      1.6082
x1.a_n935_8875.n55                      1.6082
x1.a_n935_8875.n54                      1.6082
x1.a_n935_8875.n59                      1.6082
x1.a_n935_8875.n58                      1.6082
x1.a_n935_8875.n56                      1.6082
x1.a_n935_8875.n50                      1.6082
x1.a_n935_8875.n53                      1.6082
x1.a_n935_8875.n51                      1.6082
x1.a_n935_8875.n49                      1.6082
x1.a_n935_8875.n47                      1.6082
x1.a_n935_8875.n2                       1.6082
x1.a_n935_8875.n0                       1.6082
x1.a_n935_8875.n52                      1.6082
x1.a_n935_8875.n48                      1.6082
x1.a_n935_8875.n1                       1.6082
x1.a_n935_8875.n46                      1.6082
x1.a_n935_8875.n45                      1.6082
x1.a_n935_8875.n9                       1.6082
x1.a_n935_8875.n22                      1.6082
x1.a_n935_8875.n16                      1.6082
x1.a_n935_8875.n30                      1.6082
x1.a_n935_8875.n44                      1.6082
x1.a_n935_8875.n38                      1.6082
x1.a_n935_8875.n7                       1.6082
x1.a_n935_8875.n3                       1.6082
x1.a_n935_8875.n18                      1.6082
x1.a_n935_8875.n17                      1.6082
x1.a_n935_8875.n20                      1.6082
x1.a_n935_8875.n12                      1.6082
x1.a_n935_8875.n28                      1.6082
x1.a_n935_8875.n24                      1.6082
x1.a_n935_8875.n42                      1.6082
x1.a_n935_8875.n34                      1.6082
x1.a_n935_8875.n40                      1.6082
x1.a_n935_8875.n39                      1.6082
x1.a_n935_8875.n23                      1.6082
x1.a_n935_8875.n33                      1.6082
x1.a_n935_8875.n57                      1.6082
v.x1.x62.x0.vrbody_3#branch                  0
evdrv1#branch                     -1.75759e-20
v3#branch                                    0
v2#branch                         -5.00217e-06
v0#branch                          5.00217e-06

 Reference value :  0.00000e+00
 Reference value :  1.00000e-10
 Reference value :  4.00000e-10
 Reference value :  1.60000e-09
 Reference value :  3.20000e-09
 Reference value :  1.28000e-08
 Reference value :  3.28000e-08
 Reference value :  5.28000e-08
 Reference value :  7.28000e-08
 Reference value :  9.28000e-08
No. of Data Rows : 18
 meas tran sr max deriv(v(vout)) failed!

