
Note: Compatibility modes selected: hs a


Circuit: ** sch_path: /foss/designs/sky130_op_amp/runs/run_2025-10-21_19-12-46/parameters/dc_params/run_15/sky130_op_amp_tb.sch

option SCALE: Scale is set to 1e-06 for instance and model parameters
option SCALE: Scale is set to 1e-06 for instance and model parameters
option SCALE: Scale is set to 1e-06 for instance and model parameters
option SCALE: Scale is set to 1e-06 for instance and model parameters
Doing analysis at TEMP = 27.000000 and TNOM = 27.000000

Using SPARSE 1.3 as Direct Linear Solver
 Reference value :  1.00000e+03
 Reference value :  1.41254e+03
 Reference value :  1.99526e+03
 Reference value :  2.81838e+03
 Reference value :  3.98107e+03
 Reference value :  5.62341e+03
 Reference value :  7.94328e+03
 Reference value :  1.12202e+04
 Reference value :  1.58489e+04
 Reference value :  2.23872e+04
 Reference value :  3.16228e+04
 Reference value :  4.46684e+04
 Reference value :  6.30957e+04
 Reference value :  8.91251e+04
 Reference value :  1.25893e+05
 Reference value :  1.77828e+05
 Reference value :  2.81838e+05
 Reference value :  3.98107e+05
 Reference value :  7.07946e+05
 Reference value :  1.25893e+06
 Reference value :  1.99526e+06
 Reference value :  3.16228e+06
 Reference value :  5.62341e+06
 Reference value :  1.00000e+07
 Reference value :  1.99526e+07
 Reference value :  3.98107e+07
 Reference value :  8.91251e+07
No. of Data Rows : 101
a0                  =  2.976013e+03
ugf                 =  1.117715e+07
pm                  =  8.059300e+01
Note: Simulation executed from .control section 
