
Note: Compatibility modes selected: hs a


Circuit: ** sch_path: /foss/designs/sky130_op_amp/runs/run_2025-10-21_18-52-57/parameters/slew_rate/run_36/transient.sch

option SCALE: Scale is set to 1e-06 for instance and model parameters
option SCALE: Scale is set to 1e-06 for instance and model parameters
option SCALE: Scale is set to 1e-06 for instance and model parameters
option SCALE: Scale is set to 1e-06 for instance and model parameters
Doing analysis at TEMP = 130.000000 and TNOM = 27.000000

Using SPARSE 1.3 as Direct Linear Solver

Initial Transient Solution
--------------------------

Node                                   Voltage
----                                   -------
vdd                                        1.7
ibias                                 0.646978
vout                               1.32473e-05
vss                                          0
vn                                 1.32473e-05
vp                                           0
x1.a_8862_4192.t27                  0.00151553
x1.en.t0                                   1.7
x1.vss.t311                        9.30228e-05
x1.vss.t215                        5.47368e-05
x1.vdd.t97                                 1.7
x1.vdd.t96                                 1.7
x1.vdd.t44                                 1.7
x1.vdd.t95                                 1.7
x1.vdd.t93                                 1.7
x1.vdd.t94                                 1.7
x1.vdd.t47                                 1.7
x1.a_3868_4185.t39                 1.21386e-05
x1.ibias.t10                          0.646957
x1.a_3329_8823.t39                 1.24053e-05
x1.vss.t0                          1.41658e-05
x1.a_n1962_4406.t59                1.22527e-05
x1.ibias.t11                          0.646957
x1.vout.t21                        1.32148e-05
x1.vss.t6                          1.22142e-05
x1.a_n1962_4406.t58                1.22527e-05
x1.ibias.t12                          0.646957
x1.vout.t53                        1.32151e-05
x1.vss.t211                        5.35371e-05
x1.vss.t209                        5.36966e-05
x1.vss.t210                        6.85494e-05
x1.vss.t30                          5.0146e-05
x1.a_3329_8823.t38                 1.24053e-05
x1.ibias.t13                          0.646957
x1.a_3868_4185.t38                 1.21386e-05
x1.vss.t1                          1.40038e-05
x1.vss.t208                        1.22038e-05
x1.vss.t207                        1.22036e-05
x1.vss.t64                         1.40925e-05
x1.vdd.t92                                 1.7
x1.vdd.t91                                 1.7
x1.vdd.t71                                 1.7
x1.a_3868_4185.t37                 1.21386e-05
x1.ibias.t14                          0.646957
x1.a_3329_8823.t8                  1.24053e-05
x1.vss.t11                         1.38437e-05
x1.a_n735_8972.t23                     1.41082
x1.vp.t0                                     0
x1.a_3329_8823.t56                 1.24087e-05
x1.vss.t2                          1.35986e-05
x1.vss.t310                        1.21242e-05
x1.en.t1                                   1.7
x1.a_n1962_4406.t123               1.22512e-05
x1.vss.t77                         1.22207e-05
x1.a_3868_4185.t36                 1.21379e-05
x1.ibias.t15                          0.646957
x1.a_3329_8823.t17                 1.24053e-05
x1.vss.t7                          1.45383e-05
x1.a_3329_8823.t66                 1.24088e-05
x1.vn.t0                           1.32473e-05
x1.a_n935_8875.t15                     1.41008
x1.vss.t4                          1.37171e-05
x1.vdd.t19                                 1.7
x1.a_n735_8972.t27                     1.41082
x1.vout.t67                        1.32614e-05
x1.vdd.t15                                 1.7
x1.a_n1962_4406.t122               1.22522e-05
x1.en.t2                                   1.7
x1.vss.t309                        1.21242e-05
x1.vss.t8                          1.22197e-05
x1.a_3329_8823.t65                 1.24087e-05
x1.vn.t1                           1.32473e-05
x1.a_n935_8875.t14                     1.41008
x1.vss.t5                          1.34808e-05
x1.vdd.t36                                 1.7
x1.a_n735_8972.t28                     1.41082
x1.vout.t77                        1.32604e-05
x1.vdd.t5                                  1.7
x1.vss.t206                        1.22036e-05
x1.vss.t205                        1.22036e-05
x1.a_3329_8823.t55                 1.24083e-05
x1.a_n1962_4406.t57                1.22551e-05
x1.ibias.t16                          0.646957
x1.vout.t45                        1.32145e-05
x1.vss.t212                        1.22159e-05
x1.a_n1962_4406.t56                1.22528e-05
x1.ibias.t17                          0.646957
x1.vout.t2                         1.32145e-05
x1.vss.t308                        1.21242e-05
x1.en.t3                                   1.7
x1.a_n1962_4406.t121               1.22522e-05
x1.vss.t19                         1.22168e-05
x1.a_3329_8823.t43                 1.24087e-05
x1.vn.t2                           1.32473e-05
x1.a_n935_8875.t13                     1.41008
x1.vdd.t90                                 1.7
x1.vdd.t89                                 1.7
x1.a_n1962_4406.t79                1.22539e-05
x1.vss.t203                        1.21103e-05
x1.vss.t204                        1.21103e-05
x1.vss.t20                         1.22178e-05
x1.a_n1962_4406.t120               1.22522e-05
x1.en.t4                                   1.7
x1.vss.t307                        1.21259e-05
x1.vout.t38                        1.32146e-05
x1.ibias.t18                          0.646957
x1.a_n1962_4406.t55                1.22527e-05
x1.vss.t12                         1.22187e-05
x1.vss.t202                        1.21103e-05
x1.vss.t201                        1.21103e-05
x1.a_n1962_4406.t78                1.22515e-05
x1.vss.t56                         1.22227e-05
x1.vdd.t88                                 1.7
x1.vdd.t87                                 1.7
x1.a_n935_8875.t12                     1.41008
x1.vn.t3                           1.32473e-05
x1.a_3329_8823.t62                 1.24083e-05
x1.vss.t84                         1.33339e-05
x1.vout.t46                        1.32144e-05
x1.ibias.t19                          0.646957
x1.a_n1962_4406.t54                1.22551e-05
x1.vss.t9                           1.2215e-05
x1.vdd.t86                                 1.7
x1.vdd.t84                                 1.7
x1.vdd.t85                                 1.7
x1.a_3329_8823.t63                 1.24084e-05
x1.vp.t1                                     0
x1.a_n735_8972.t22                     1.41082
x1.vss.t89                         1.39557e-05
x1.vss.t306                        1.21259e-05
x1.en.t5                                   1.7
x1.a_n1962_4406.t119               1.22523e-05
x1.vdd.t17                                 1.7
x1.a_n735_8972.t29                     1.41082
x1.vout.t65                        1.32624e-05
x1.vdd.t16                                 1.7
x1.a_n735_8972.t30                     1.41082
x1.vout.t64                        1.32622e-05
x1.vss.t198                        1.21103e-05
x1.vss.t197                        1.21103e-05
x1.a_n1962_4406.t53                1.22541e-05
x1.ibias.t20                          0.646957
x1.vout.t42                        1.32144e-05
x1.vss.t45                         1.22155e-05
x1.vout.t35                        1.32144e-05
x1.ibias.t21                          0.646957
x1.a_n1962_4406.t52                1.22528e-05
x1.vss.t16                         1.22133e-05
x1.vss.t200                         1.2087e-05
x1.vss.t199                         1.2087e-05
x1.a_3868_4185.t55                 1.21375e-05
x1.vss.t27                         1.57189e-05
x1.vss.t196                         1.2087e-05
x1.vss.t195                         1.2087e-05
x1.a_3868_4185.t54                 1.21375e-05
x1.a_n1962_4406.t77                1.22538e-05
x1.vss.t193                        1.21103e-05
x1.vss.t194                        1.21103e-05
x1.vss.t38                         1.22219e-05
x1.a_3329_8823.t42                 1.24087e-05
x1.vn.t4                           1.32473e-05
x1.a_n935_8875.t11                     1.41008
x1.a_n1962_4406.t118               1.22522e-05
x1.en.t6                                   1.7
x1.vss.t305                        1.21242e-05
x1.vss.t15                          1.2213e-05
x1.a_n1962_4406.t117               1.22522e-05
x1.en.t7                                   1.7
x1.vss.t304                        1.21207e-05
x1.vss.t192                         7.0357e-05
x1.vss.t191                        6.30191e-05
x1.vss.t22                         5.73664e-05
x1.a_n735_8972.t21                     1.41082
x1.vp.t2                                     0
x1.a_3329_8823.t73                 1.24086e-05
x1.vss.t313                        1.39896e-05
x1.a_n1962_4406.t51                1.22528e-05
x1.ibias.t22                          0.646957
x1.vout.t9                         1.32148e-05
x1.a_n1962_4406.t116               1.22522e-05
x1.en.t8                                   1.7
x1.vss.t303                        1.21171e-05
x1.a_3329_8823.t35                 1.24054e-05
x1.ibias.t23                          0.646957
x1.a_3868_4185.t35                 1.21384e-05
x1.vss.t14                          1.3682e-05
x1.ibias.t7                           0.646744
x1.ibias.t6                           0.646946
x1.a_8862_4192.t0                   0.00174564
x1.vss.t214                         5.3333e-05
x1.vss.t302                        0.000103905
x1.en.t9                                   1.7
x1.a_8862_4192.t26                  0.00151478
x1.a_n935_8875.t33                     1.41008
x1.a_n935_8875.t32                     1.41008
x1.vdd.t110                                1.7
x1.vdd.t8                                  1.7
x1.a_n1962_4406.t50                1.22528e-05
x1.ibias.t24                          0.646957
x1.vout.t3                         1.32151e-05
x1.vss.t190                        1.21103e-05
x1.vss.t188                        1.21103e-05
x1.vss.t189                        1.21103e-05
x1.vout.t0                         1.32148e-05
x1.ibias.t25                          0.646957
x1.a_n1962_4406.t49                1.22528e-05
x1.vout.t6                         1.32151e-05
x1.ibias.t26                          0.646957
x1.a_n1962_4406.t48                1.22528e-05
x1.a_3868_4185.t53                 1.21383e-05
x1.vss.t186                         1.2087e-05
x1.vss.t187                         1.2087e-05
x1.vss.t51                         1.35132e-05
x1.a_8862_4192.t25                  0.00151471
x1.en.t10                                  1.7
x1.vss.t301                        7.70494e-05
x1.vss.t219                        5.18427e-05
x1.vss.t185                        5.90674e-05
x1.vss.t183                         5.9154e-05
x1.vss.t184                        7.39963e-05
x1.vdd.t7                                  1.7
x1.a_n735_8972.t31                     1.41082
x1.vout.t62                        1.32614e-05
x1.a_n735_8972.t7                      1.41082
x1.x62.x0.t1                           1.41082
x1.x62.x0.t2                           1.41082
x1.a_9909_7861.t0                      1.41082
x1.vss.t218                         5.9048e-05
x1.x62.x0.rbody_3                            0
x1.a_3868_4185.t34                 1.21383e-05
x1.ibias.t27                          0.646957
x1.a_3329_8823.t4                  1.24054e-05
x1.vss.t10                         1.51774e-05
x1.a_8862_4192.t3                   0.00174564
x1.ibias.t4                           0.646945
x1.ibias.t5                           0.646833
x1.vss.t300                        1.21275e-05
x1.en.t11                                  1.7
x1.a_n1962_4406.t115               1.22523e-05
x1.vss.t17                         1.22134e-05
x1.a_n1962_4406.t114               1.22512e-05
x1.en.t12                                  1.7
x1.vss.t299                        1.21188e-05
x1.vss.t182                        1.21103e-05
x1.vss.t181                        1.21103e-05
x1.a_n735_8972.t24                     1.41082
x1.a_n935_8875.t34                     1.41008
x1.vdd.t103                                1.7
x1.vdd.t30                                 1.7
x1.vss.t180                        1.22036e-05
x1.vss.t179                        1.22036e-05
x1.a_3329_8823.t54                 1.24083e-05
x1.a_3329_8823.t2                  1.24054e-05
x1.ibias.t28                          0.646957
x1.a_3868_4185.t33                 1.21386e-05
x1.vss.t13                         1.48264e-05
x1.vss.t178                        6.88869e-05
x1.vss.t177                         6.1542e-05
x1.vss.t293                        1.20932e-05
x1.en.t13                                  1.7
x1.a_3868_4185.t79                 1.21377e-05
x1.vss.t18                         1.43362e-05
x1.a_n935_8875.t10                     1.41008
x1.vn.t5                           1.32473e-05
x1.a_3329_8823.t64                 1.24087e-05
x1.vss.t298                        1.21188e-05
x1.en.t14                                  1.7
x1.a_n1962_4406.t113               1.22521e-05
x1.vss.t176                        1.21103e-05
x1.vss.t175                        1.21103e-05
x1.a_n1962_4406.t76                1.22538e-05
x1.a_3329_8823.t71                 1.24084e-05
x1.vn.t6                           1.32473e-05
x1.a_n935_8875.t9                      1.41008
x1.vdd.t83                                 1.7
x1.vdd.t82                                 1.7
x1.a_3868_4185.t78                 1.21377e-05
x1.en.t15                                  1.7
x1.vss.t297                        1.20933e-05
x1.a_3868_4185.t77                 1.21377e-05
x1.en.t16                                  1.7
x1.vss.t296                        1.20933e-05
x1.vdd.t33                                 1.7
x1.a_n735_8972.t32                     1.41082
x1.vout.t75                        1.32624e-05
x1.vss.t295                        9.16082e-05
x1.en.t17                                  1.7
x1.a_8862_4192.t24                   0.0015141
x1.a_3329_8823.t28                 1.24053e-05
x1.ibias.t29                          0.646957
x1.a_3868_4185.t32                 1.21383e-05
x1.a_3329_8823.t77                 1.24088e-05
x1.vp.t3                                     0
x1.a_n735_8972.t20                     1.41082
x1.vdd.t105                                1.7
x1.a_n735_8972.t33                     1.41082
x1.vout.t86                        1.32617e-05
x1.a_3868_4185.t31                 1.21379e-05
x1.ibias.t30                          0.646957
x1.a_3329_8823.t11                 1.24053e-05
x1.a_n1962_4406.t112               1.22522e-05
x1.en.t18                                  1.7
x1.vss.t294                        1.21224e-05
x1.a_8862_4192.t23                  0.00151405
x1.en.t19                                  1.7
x1.vss.t292                        7.22087e-05
x1.vss.t174                        5.45744e-05
x1.vss.t172                        5.45954e-05
x1.vss.t173                        6.93069e-05
x1.a_3329_8823.t12                 1.24053e-05
x1.ibias.t31                          0.646957
x1.a_3868_4185.t30                 1.21379e-05
x1.a_3868_4185.t52                 1.21383e-05
x1.vss.t170                         1.2087e-05
x1.vss.t171                         1.2087e-05
x1.vout.t49                        1.32149e-05
x1.ibias.t32                          0.646957
x1.a_n1962_4406.t47                1.22527e-05
x1.vout.t28                        1.32153e-05
x1.ibias.t33                          0.646957
x1.a_n1962_4406.t46                1.22527e-05
x1.a_n1962_4406.t45                1.22541e-05
x1.ibias.t34                          0.646957
x1.vout.t57                        1.32155e-05
x1.a_3868_4185.t76                 1.21374e-05
x1.en.t20                                  1.7
x1.vss.t291                        1.20933e-05
x1.a_3329_8823.t61                 1.24087e-05
x1.vp.t4                                     0
x1.a_n735_8972.t19                     1.41082
x1.vout.t69                        1.32624e-05
x1.a_n735_8972.t34                     1.41082
x1.vdd.t23                                 1.7
x1.vdd.t13                                 1.7
x1.vss.t130                        1.21103e-05
x1.vss.t129                        1.21103e-05
x1.a_3868_4185.t75                 1.21377e-05
x1.en.t21                                  1.7
x1.vss.t290                        1.20932e-05
x1.vss.t289                        1.20933e-05
x1.en.t22                                  1.7
x1.a_3868_4185.t74                 1.21377e-05
x1.vout.t54                        1.32146e-05
x1.ibias.t35                          0.646957
x1.a_n1962_4406.t44                1.22541e-05
x1.a_3868_4185.t29                 1.21386e-05
x1.ibias.t36                          0.646957
x1.a_3329_8823.t18                 1.24053e-05
x1.vss.t169                        1.21103e-05
x1.vss.t168                        1.21103e-05
x1.a_n1962_4406.t43                1.22528e-05
x1.ibias.t37                          0.646957
x1.vout.t52                        1.32146e-05
x1.vout.t25                        1.32145e-05
x1.ibias.t38                          0.646957
x1.a_n1962_4406.t42                1.22541e-05
x1.vss.t167                        1.21103e-05
x1.vss.t166                        1.21103e-05
x1.vout.t26                        1.32145e-05
x1.ibias.t39                          0.646957
x1.a_n1962_4406.t41                1.22528e-05
x1.vss.t165                        1.21103e-05
x1.vss.t164                        1.21103e-05
x1.a_n1962_4406.t75                1.22538e-05
x1.vss.t288                        1.21259e-05
x1.en.t23                                  1.7
x1.a_n1962_4406.t111               1.22522e-05
x1.a_n935_8875.t8                      1.41008
x1.vn.t7                           1.32473e-05
x1.a_3329_8823.t46                 1.24088e-05
x1.vss.t3                          1.38351e-05
x1.vdd.t81                                 1.7
x1.vdd.t80                                 1.7
x1.vss.t287                        1.21207e-05
x1.en.t24                                  1.7
x1.a_n1962_4406.t110               1.22512e-05
x1.vss.t286                        1.21171e-05
x1.en.t25                                  1.7
x1.a_n1962_4406.t109               1.22511e-05
x1.vdd.t106                                1.7
x1.a_n935_8875.t35                     1.41008
x1.a_n735_8972.t25                     1.41082
x1.vdd.t11                                 1.7
x1.a_n1962_4406.t40                1.22541e-05
x1.ibias.t40                          0.646957
x1.vout.t58                        1.32146e-05
x1.vss.t163                        1.22038e-05
x1.vss.t161                        1.22036e-05
x1.vss.t162                        1.43203e-05
x1.vdd.t25                                 1.7
x1.a_n735_8972.t35                     1.41082
x1.vout.t71                         1.3261e-05
x1.vss.t160                        1.21103e-05
x1.vss.t158                        1.21103e-05
x1.vss.t159                        1.21103e-05
x1.a_n1962_4406.t108               1.22521e-05
x1.en.t26                                  1.7
x1.vss.t285                        1.21207e-05
x1.a_3329_8823.t27                 1.24054e-05
x1.ibias.t41                          0.646957
x1.a_3868_4185.t28                 1.21379e-05
x1.a_n935_8875.t31                     1.41008
x1.a_n935_8875.t30                     1.41008
x1.vdd.t37                                 1.7
x1.a_n1962_4406.t39                1.22541e-05
x1.ibias.t42                          0.646957
x1.vout.t13                        1.32144e-05
x1.vout.t16                        1.32146e-05
x1.ibias.t43                          0.646957
x1.a_n1962_4406.t38                1.22528e-05
x1.a_n1962_4406.t37                1.22528e-05
x1.ibias.t44                          0.646957
x1.vout.t22                        1.32147e-05
x1.a_n1962_4406.t107               1.22521e-05
x1.en.t27                                  1.7
x1.vss.t284                        1.21171e-05
x1.a_3329_8823.t0                  1.24054e-05
x1.ibias.t45                          0.646957
x1.a_3868_4185.t27                 1.21379e-05
x1.a_n735_8972.t18                     1.41082
x1.vp.t5                                     0
x1.a_3329_8823.t47                 1.24087e-05
x1.vss.t157                        1.22039e-05
x1.vss.t155                        1.22036e-05
x1.a_n735_8972.t4                      1.41082
x1.vss.t156                        1.41512e-05
x1.vout.t73                        1.32624e-05
x1.a_n735_8972.t36                     1.41082
x1.vdd.t27                                 1.7
x1.a_n1962_4406.t36                1.22528e-05
x1.ibias.t46                          0.646957
x1.vout.t39                        1.32145e-05
x1.a_n1962_4406.t106               1.22522e-05
x1.en.t28                                  1.7
x1.vss.t280                        1.21225e-05
x1.vss.t281                        1.21207e-05
x1.en.t29                                  1.7
x1.a_n1962_4406.t105               1.22522e-05
x1.vss.t283                        1.21171e-05
x1.en.t30                                  1.7
x1.a_n1962_4406.t104               1.22522e-05
x1.vss.t282                        0.000103008
x1.en.t31                                  1.7
x1.a_8862_4192.t22                  0.00151431
x1.a_3329_8823.t53                 1.24082e-05
x1.vss.t153                        1.22035e-05
x1.vss.t154                        1.22035e-05
x1.vss.t61                         1.31521e-05
x1.vout.t14                        1.32148e-05
x1.ibias.t47                          0.646957
x1.a_n1962_4406.t35                1.22527e-05
x1.vss.t152                        1.21103e-05
x1.vss.t151                        1.21103e-05
x1.a_n1962_4406.t74                1.22515e-05
x1.vout.t17                        1.32151e-05
x1.ibias.t48                          0.646957
x1.a_n1962_4406.t34                1.22527e-05
x1.vss.t150                        1.21103e-05
x1.vss.t149                        1.21103e-05
x1.vss.t279                        1.21224e-05
x1.en.t32                                  1.7
x1.a_n1962_4406.t103               1.22522e-05
x1.a_n1962_4406.t33                1.22552e-05
x1.ibias.t49                          0.646957
x1.vout.t50                        1.32155e-05
x1.a_3868_4185.t73                 1.21377e-05
x1.en.t33                                  1.7
x1.vss.t278                        1.20933e-05
x1.vss.t274                        1.20933e-05
x1.en.t34                                  1.7
x1.a_3868_4185.t72                 1.21374e-05
x1.vss.t277                        1.20933e-05
x1.en.t35                                  1.7
x1.a_3868_4185.t71                 1.21374e-05
x1.a_n935_8875.t29                     1.41008
x1.a_n935_8875.t28                     1.41008
x1.vdd.t29                                 1.7
x1.vdd.t79                                 1.7
x1.vdd.t78                                 1.7
x1.a_n1962_4406.t32                1.22552e-05
x1.ibias.t50                          0.646957
x1.vout.t29                        1.32155e-05
x1.a_8862_4192.t21                  0.00151424
x1.en.t36                                  1.7
x1.vss.t276                        7.76423e-05
x1.a_3868_4185.t70                 1.21377e-05
x1.en.t37                                  1.7
x1.vss.t275                        1.20933e-05
x1.vss.t148                         1.2087e-05
x1.vss.t147                         1.2087e-05
x1.a_3868_4185.t51                 1.21383e-05
x1.vdd.t22                                 1.7
x1.a_n935_8875.t26                     1.41008
x1.a_n935_8875.t27                     1.41008
x1.vdd.t0                                  1.7
x1.vout.t23                        1.32155e-05
x1.ibias.t51                          0.646957
x1.a_n1962_4406.t31                1.22552e-05
x1.vss.t273                        1.20933e-05
x1.en.t38                                  1.7
x1.a_3868_4185.t69                 1.21377e-05
x1.a_3868_4185.t50                 1.21376e-05
x1.vss.t145                         1.2087e-05
x1.vss.t146                         1.2087e-05
x1.vss.t144                        5.79351e-05
x1.vss.t142                        5.80793e-05
x1.vss.t143                        7.28886e-05
x1.a_3868_4185.t49                 1.21375e-05
x1.vss.t140                         1.2087e-05
x1.vss.t141                         1.2087e-05
x1.vss.t272                        1.20933e-05
x1.en.t39                                  1.7
x1.a_3868_4185.t68                 1.21377e-05
x1.vss.t271                        1.21242e-05
x1.en.t40                                  1.7
x1.a_n1962_4406.t102               1.22522e-05
x1.a_3868_4185.t26                 1.21383e-05
x1.ibias.t52                          0.646957
x1.a_3329_8823.t14                 1.24053e-05
x1.a_3868_4185.t25                 1.21383e-05
x1.ibias.t53                          0.646957
x1.a_3329_8823.t24                 1.24054e-05
x1.a_3329_8823.t67                 1.24086e-05
x1.vn.t8                           1.32473e-05
x1.a_n935_8875.t7                      1.41008
x1.vss.t217                        1.38294e-05
x1.a_3868_4185.t24                 1.21379e-05
x1.ibias.t54                          0.646957
x1.a_3329_8823.t34                 1.24054e-05
x1.vdd.t77                                 1.7
x1.vdd.t76                                 1.7
x1.a_n1962_4406.t73                1.22538e-05
x1.vss.t138                        1.21103e-05
x1.vss.t139                        1.21103e-05
x1.a_n1962_4406.t72                1.22538e-05
x1.vss.t136                        1.21103e-05
x1.vss.t137                        1.21103e-05
x1.ibias.t3                           0.646838
x1.ibias.t2                           0.646949
x1.a_8862_4192.t2                   0.00174565
x1.vss.t216                        5.60877e-05
x1.vss.t270                        7.57677e-05
x1.en.t41                                  1.7
x1.a_8862_4192.t20                  0.00151469
x1.a_3868_4185.t23                 1.21379e-05
x1.ibias.t55                          0.646957
x1.a_3329_8823.t5                  1.24054e-05
x1.a_3329_8823.t9                  1.24054e-05
x1.ibias.t56                          0.646957
x1.a_3868_4185.t22                 1.21379e-05
x1.a_n1962_4406.t101               1.22521e-05
x1.en.t42                                  1.7
x1.vss.t269                        1.21207e-05
x1.a_n1962_4406.t100               1.22521e-05
x1.en.t43                                  1.7
x1.vss.t268                        1.21171e-05
x1.a_3329_8823.t13                 1.24053e-05
x1.ibias.t57                          0.646957
x1.a_3868_4185.t21                 1.21379e-05
x1.vdd.t75                                 1.7
x1.vdd.t73                                 1.7
x1.vdd.t74                                 1.7
x1.vdd.t40                                 1.7
x1.vss.t267                        9.25409e-05
x1.en.t44                                  1.7
x1.a_8862_4192.t19                  0.00151458
x1.a_8862_4192.t18                  0.00151476
x1.en.t45                                  1.7
x1.vss.t266                        0.000103905
x1.vdd.t101                                1.7
x1.a_n735_8972.t37                     1.41082
x1.vout.t83                         1.3262e-05
x1.a_n1962_4406.t30                1.22529e-05
x1.ibias.t58                          0.646957
x1.vout.t55                        1.32145e-05
x1.a_8862_4192.t1                   0.00174565
x1.ibias.t0                           0.646947
x1.ibias.t1                           0.646744
x1.a_3329_8823.t1                  1.24053e-05
x1.ibias.t59                          0.646957
x1.a_3868_4185.t20                 1.21383e-05
x1.vdd.t109                                1.7
x1.a_n935_8875.t36                     1.41008
x1.a_n735_8972.t26                     1.41082
x1.a_8862_4192.t17                  0.00151453
x1.en.t46                                  1.7
x1.vss.t265                        7.29655e-05
x1.vss.t135                        5.55031e-05
x1.vss.t133                        5.54009e-05
x1.vss.t134                         6.9992e-05
x1.vout.t81                        1.32614e-05
x1.a_n735_8972.t38                     1.41082
x1.vdd.t99                                 1.7
x1.vss.t128                         1.2087e-05
x1.vss.t127                         1.2087e-05
x1.a_3868_4185.t48                 1.21375e-05
x1.a_3868_4185.t47                 1.21383e-05
x1.vss.t131                         1.2087e-05
x1.vss.t132                         1.2087e-05
x1.a_n935_8875.t25                     1.41008
x1.a_n935_8875.t24                     1.41008
x1.vdd.t31                                 1.7
x1.a_3868_4185.t19                 1.21383e-05
x1.ibias.t60                          0.646957
x1.a_3329_8823.t25                 1.24053e-05
x1.a_3329_8823.t52                 1.24082e-05
x1.vss.t125                        1.22035e-05
x1.vss.t126                        1.22035e-05
x1.vss.t248                        7.29376e-05
x1.en.t47                                  1.7
x1.a_8862_4192.t16                  0.00151406
x1.a_3329_8823.t6                  1.24053e-05
x1.ibias.t61                          0.646957
x1.a_3868_4185.t18                 1.21386e-05
x1.vdd.t72                                 1.7
x1.vdd.t70                                 1.7
x1.a_3868_4185.t67                 1.21377e-05
x1.en.t48                                  1.7
x1.vss.t264                        1.20932e-05
x1.vout.t63                        1.32622e-05
x1.a_n735_8972.t39                     1.41082
x1.vdd.t14                                 1.7
x1.vout.t68                        1.32608e-05
x1.a_n735_8972.t40                     1.41082
x1.vdd.t20                                 1.7
x1.vdd.t2                                  1.7
x1.a_n1962_4406.t99                1.22521e-05
x1.en.t49                                  1.7
x1.vss.t263                        1.21189e-05
x1.a_8862_4192.t15                  0.00151411
x1.en.t50                                  1.7
x1.vss.t262                        9.16082e-05
x1.vss.t124                        1.22036e-05
x1.vss.t123                        1.22036e-05
x1.a_3329_8823.t51                 1.24083e-05
x1.a_n1962_4406.t98                1.22521e-05
x1.en.t51                                  1.7
x1.vss.t261                        1.21152e-05
x1.vdd.t69                                 1.7
x1.vdd.t67                                 1.7
x1.vdd.t68                                 1.7
x1.a_3329_8823.t58                 1.24084e-05
x1.vp.t6                                     0
x1.a_n735_8972.t17                     1.41082
x1.vss.t122                        1.21103e-05
x1.vss.t121                        1.21103e-05
x1.a_n1962_4406.t71                1.22538e-05
x1.a_3329_8823.t79                 1.24084e-05
x1.vn.t9                           1.32473e-05
x1.a_n935_8875.t6                      1.41008
x1.vout.t40                        1.32147e-05
x1.ibias.t62                          0.646957
x1.a_n1962_4406.t29                1.22541e-05
x1.a_n935_8875.t5                      1.41008
x1.vn.t10                          1.32473e-05
x1.a_3329_8823.t70                 1.24086e-05
x1.vdd.t66                                 1.7
x1.vdd.t64                                 1.7
x1.vdd.t65                                 1.7
x1.a_n735_8972.t5                      1.41082
x1.a_n935_8875.t37                     1.41008
x1.vdd.t28                                 1.7
x1.vout.t66                        1.32616e-05
x1.a_n735_8972.t41                     1.41082
x1.vdd.t18                                 1.7
x1.vss.t120                        1.21103e-05
x1.vss.t119                        1.21103e-05
x1.a_n1962_4406.t97                1.22513e-05
x1.en.t52                                  1.7
x1.vss.t260                        1.21258e-05
x1.a_n1962_4406.t28                1.22527e-05
x1.ibias.t63                          0.646957
x1.vout.t15                        1.32147e-05
x1.vss.t118                        1.21103e-05
x1.vss.t117                        1.21103e-05
x1.vdd.t4                                  1.7
x1.a_n935_8875.t38                     1.41008
x1.a_n735_8972.t0                      1.41082
x1.a_n735_8972.t16                     1.41082
x1.vp.t7                                     0
x1.a_3329_8823.t74                 1.24088e-05
x1.a_3329_8823.t75                 1.24086e-05
x1.vp.t8                                     0
x1.a_n735_8972.t15                     1.41082
x1.a_n1962_4406.t96                1.22523e-05
x1.en.t53                                  1.7
x1.vss.t259                        1.21276e-05
x1.vdd.t63                                 1.7
x1.vdd.t61                                 1.7
x1.vdd.t62                                 1.7
x1.vss.t116                        1.21103e-05
x1.vss.t115                        1.21103e-05
x1.a_n1962_4406.t70                1.22539e-05
x1.a_n1962_4406.t27                1.22528e-05
x1.ibias.t64                          0.646957
x1.vout.t18                        1.32145e-05
x1.vss.t258                        1.21258e-05
x1.en.t54                                  1.7
x1.a_n1962_4406.t95                1.22522e-05
x1.vout.t10                        1.32147e-05
x1.ibias.t65                          0.646957
x1.a_n1962_4406.t26                1.22528e-05
x1.a_n735_8972.t14                     1.41082
x1.vp.t9                                     0
x1.a_3329_8823.t78                 1.24083e-05
x1.a_3329_8823.t59                 1.24088e-05
x1.vp.t10                                    0
x1.a_n735_8972.t13                     1.41082
x1.a_n735_8972.t12                     1.41082
x1.vp.t11                                    0
x1.a_3329_8823.t69                 1.24083e-05
x1.a_n1962_4406.t69                1.22515e-05
x1.vss.t113                        1.21103e-05
x1.vss.t114                        1.21103e-05
x1.vss.t257                        1.21225e-05
x1.en.t55                                  1.7
x1.a_n1962_4406.t94                1.22521e-05
x1.a_n1962_4406.t68                1.22538e-05
x1.vss.t111                        1.21103e-05
x1.vss.t112                        1.21103e-05
x1.vout.t51                        1.32145e-05
x1.ibias.t66                          0.646957
x1.a_n1962_4406.t25                1.22529e-05
x1.vout.t30                        1.32155e-05
x1.ibias.t67                          0.646957
x1.a_n1962_4406.t24                1.22552e-05
x1.vout.t24                        1.32155e-05
x1.ibias.t68                          0.646957
x1.a_n1962_4406.t23                1.22541e-05
x1.vss.t256                        0.000104383
x1.en.t56                                  1.7
x1.a_8862_4192.t14                   0.0015157
x1.a_8862_4192.t13                  0.00151563
x1.en.t57                                  1.7
x1.vss.t255                        7.65409e-05
x1.vdd.t21                                 1.7
x1.a_n935_8875.t22                     1.41008
x1.a_n935_8875.t23                     1.41008
x1.a_3329_8823.t50                 1.24082e-05
x1.vss.t109                        1.22035e-05
x1.vss.t110                        1.22035e-05
x1.vout.t56                        1.32144e-05
x1.ibias.t69                          0.646957
x1.a_n1962_4406.t22                1.22551e-05
x1.a_n1962_4406.t21                1.22541e-05
x1.ibias.t70                          0.646957
x1.vout.t20                        1.32148e-05
x1.a_3329_8823.t16                 1.24054e-05
x1.ibias.t71                          0.646957
x1.a_3868_4185.t17                 1.21386e-05
x1.vss.t108                         1.2087e-05
x1.vss.t107                         1.2087e-05
x1.a_3868_4185.t46                 1.21383e-05
x1.vout.t79                        1.32617e-05
x1.a_n735_8972.t42                     1.41082
x1.vdd.t38                                 1.7
x1.vout.t34                        1.32145e-05
x1.ibias.t72                          0.646957
x1.a_n1962_4406.t20                1.22528e-05
x1.a_n1962_4406.t19                1.22541e-05
x1.ibias.t73                          0.646957
x1.vout.t11                         1.3215e-05
x1.vss.t106                         1.2087e-05
x1.vss.t105                         1.2087e-05
x1.a_3868_4185.t45                 1.21383e-05
x1.vss.t104                        1.22034e-05
x1.vss.t101                        1.22034e-05
x1.vss.t103                        1.22038e-05
x1.vss.t102                        1.29971e-05
x1.a_n1962_4406.t18                1.22527e-05
x1.ibias.t74                          0.646957
x1.vout.t31                        1.32147e-05
x1.vss.t100                        7.06506e-05
x1.vss.t99                         6.33188e-05
x1.vss.t254                        7.59682e-05
x1.en.t58                                  1.7
x1.a_8862_4192.t12                  0.00151422
x1.vout.t8                         1.32148e-05
x1.ibias.t75                          0.646957
x1.a_n1962_4406.t17                1.22527e-05
x1.a_n1962_4406.t16                1.22528e-05
x1.ibias.t76                          0.646957
x1.vout.t32                        1.32149e-05
x1.a_n1962_4406.t15                1.22528e-05
x1.ibias.t77                          0.646957
x1.vout.t4                         1.32153e-05
x1.a_3868_4185.t16                 1.21386e-05
x1.ibias.t78                          0.646957
x1.a_3329_8823.t21                 1.24054e-05
x1.vss.t98                          6.2296e-05
x1.vss.t97                         6.22957e-05
x1.ibias.t9                            0.64686
x1.a_n1962_4406.t93                1.22522e-05
x1.en.t59                                  1.7
x1.vss.t253                        1.21189e-05
x1.vout.t19                         1.3215e-05
x1.ibias.t79                          0.646957
x1.a_n1962_4406.t14                1.22527e-05
x1.a_n1962_4406.t92                1.22522e-05
x1.en.t60                                  1.7
x1.vss.t252                        1.21152e-05
x1.a_3868_4185.t15                 1.21379e-05
x1.ibias.t80                          0.646957
x1.a_3329_8823.t36                 1.24054e-05
x1.vss.t251                        9.30228e-05
x1.en.t61                                  1.7
x1.a_8862_4192.t11                  0.00151552
x1.vdd.t60                                 1.7
x1.vdd.t58                                 1.7
x1.vdd.t59                                 1.7
x1.a_n735_8972.t11                     1.41082
x1.vp.t12                                    0
x1.a_3329_8823.t40                 1.24086e-05
x1.vss.t250                        1.21189e-05
x1.en.t62                                  1.7
x1.a_n1962_4406.t91                1.22522e-05
x1.vss.t96                         1.21103e-05
x1.vss.t95                         1.21103e-05
x1.a_8862_4192.t10                  0.00151429
x1.en.t63                                  1.7
x1.vss.t249                        0.000103008
x1.a_3868_4185.t14                 1.21379e-05
x1.ibias.t81                          0.646957
x1.a_3329_8823.t32                 1.24054e-05
x1.vss.t247                        1.21152e-05
x1.en.t64                                  1.7
x1.a_n1962_4406.t90                1.22522e-05
x1.a_3329_8823.t23                 1.24054e-05
x1.ibias.t82                          0.646957
x1.a_3868_4185.t13                 1.21386e-05
x1.a_8862_4192.t9                   0.00151547
x1.en.t65                                  1.7
x1.vss.t246                        7.36512e-05
x1.vss.t245                        1.20932e-05
x1.en.t66                                  1.7
x1.a_3868_4185.t66                 1.21374e-05
x1.a_n735_8972.t1                      1.41082
x1.a_n935_8875.t39                     1.41008
x1.vdd.t9                                  1.7
x1.vdd.t35                                 1.7
x1.a_n735_8972.t43                     1.41082
x1.vout.t76                        1.32619e-05
x1.a_n1962_4406.t13                1.22528e-05
x1.ibias.t83                          0.646957
x1.vout.t43                        1.32146e-05
x1.a_3329_8823.t45                 1.24086e-05
x1.vn.t11                          1.32473e-05
x1.a_n935_8875.t4                      1.41008
x1.vout.t88                        1.32611e-05
x1.a_n735_8972.t44                     1.41082
x1.vdd.t108                                1.7
x1.vss.t244                        1.21207e-05
x1.en.t67                                  1.7
x1.a_n1962_4406.t89                1.22521e-05
x1.a_3868_4185.t12                 1.21386e-05
x1.ibias.t84                          0.646957
x1.a_3329_8823.t10                 1.24054e-05
x1.vss.t94                          1.2087e-05
x1.vss.t93                          1.2087e-05
x1.a_3868_4185.t44                 1.21383e-05
x1.a_3868_4185.t43                 1.21375e-05
x1.vss.t91                          1.2087e-05
x1.vss.t92                          1.2087e-05
x1.a_3329_8823.t7                  1.24053e-05
x1.ibias.t85                          0.646957
x1.a_3868_4185.t11                 1.21379e-05
x1.vdd.t10                                 1.7
x1.a_n935_8875.t40                     1.41008
x1.a_n735_8972.t2                      1.41082
x1.vss.t90                         1.22039e-05
x1.vss.t88                         1.22036e-05
x1.a_n935_8875.t17                     1.41008
x1.a_n935_8875.t3                      1.41008
x1.vn.t12                          1.32473e-05
x1.a_3329_8823.t57                 1.24083e-05
x1.vdd.t57                                 1.7
x1.vdd.t55                                 1.7
x1.vdd.t56                                 1.7
x1.vss.t243                        1.21171e-05
x1.en.t68                                  1.7
x1.a_n1962_4406.t88                1.22521e-05
x1.a_3868_4185.t10                 1.21383e-05
x1.ibias.t86                          0.646957
x1.a_3329_8823.t3                  1.24053e-05
x1.vss.t87                           6.782e-05
x1.vss.t86                         6.04769e-05
x1.vss.t242                        7.35183e-05
x1.en.t69                                  1.7
x1.a_8862_4192.t8                   0.00151454
x1.a_3329_8823.t29                 1.24053e-05
x1.ibias.t87                          0.646957
x1.a_3868_4185.t9                  1.21379e-05
x1.vout.t74                        1.32619e-05
x1.a_n735_8972.t45                     1.41082
x1.vdd.t32                                 1.7
x1.a_3868_4185.t65                 1.21377e-05
x1.en.t70                                  1.7
x1.vss.t241                        1.20933e-05
x1.vdd.t102                                1.7
x1.a_n735_8972.t46                     1.41082
x1.vout.t84                        1.32608e-05
x1.a_8862_4192.t7                   0.00151459
x1.en.t71                                  1.7
x1.vss.t240                        9.25409e-05
x1.vss.t239                        1.20933e-05
x1.en.t72                                  1.7
x1.a_3868_4185.t64                 1.21377e-05
x1.vdd.t12                                 1.7
x1.a_n935_8875.t20                     1.41008
x1.a_n935_8875.t21                     1.41008
x1.a_n935_8875.t2                      1.41008
x1.vn.t13                          1.32473e-05
x1.a_3329_8823.t68                 1.24088e-05
x1.vdd.t54                                 1.7
x1.vdd.t53                                 1.7
x1.a_n935_8875.t16                     1.41008
x1.vss.t83                         1.22035e-05
x1.vss.t85                         1.22039e-05
x1.vss.t82                         1.21103e-05
x1.vss.t81                         1.21103e-05
x1.vout.t85                         1.3261e-05
x1.a_n735_8972.t47                     1.41082
x1.vdd.t104                                1.7
x1.vss.t80                         1.21103e-05
x1.vss.t79                         1.21103e-05
x1.a_n1962_4406.t67                1.22516e-05
x1.a_3868_4185.t8                  1.21379e-05
x1.ibias.t88                          0.646957
x1.a_3329_8823.t26                 1.24053e-05
x1.vss.t78                         1.21103e-05
x1.vss.t76                         1.21103e-05
x1.vdd.t107                                1.7
x1.a_n735_8972.t48                     1.41082
x1.vout.t87                        1.32616e-05
x1.a_n1962_4406.t66                1.22538e-05
x1.vss.t74                         1.21103e-05
x1.vss.t75                         1.21103e-05
x1.vss.t73                         1.22035e-05
x1.vss.t71                         1.22035e-05
x1.vss.t72                         1.22039e-05
x1.vdd.t24                                 1.7
x1.a_n735_8972.t49                     1.41082
x1.vout.t70                        1.32618e-05
x1.vss.t238                        1.21276e-05
x1.en.t73                                  1.7
x1.a_n1962_4406.t87                1.22523e-05
x1.vss.t70                         1.21103e-05
x1.vss.t68                         1.21103e-05
x1.vss.t69                         1.21103e-05
x1.vout.t72                        1.32604e-05
x1.a_n735_8972.t50                     1.41082
x1.vdd.t26                                 1.7
x1.vout.t41                        1.32145e-05
x1.ibias.t89                          0.646957
x1.a_n1962_4406.t12                1.22541e-05
x1.a_n1962_4406.t65                1.22538e-05
x1.vss.t66                         1.21103e-05
x1.vss.t67                         1.21103e-05
x1.a_n1962_4406.t86                1.22522e-05
x1.en.t74                                  1.7
x1.vss.t237                        1.21242e-05
x1.vss.t65                         1.22036e-05
x1.vss.t63                         1.22036e-05
x1.a_3329_8823.t49                 1.24083e-05
x1.a_3329_8823.t48                 1.24082e-05
x1.vss.t60                         1.22035e-05
x1.vss.t62                         1.22035e-05
x1.a_n1962_4406.t11                1.22528e-05
x1.ibias.t90                          0.646957
x1.vout.t47                        1.32146e-05
x1.vss.t59                         1.21103e-05
x1.vss.t58                         1.21103e-05
x1.a_n1962_4406.t64                1.22538e-05
x1.vdd.t1                                  1.7
x1.a_n935_8875.t18                     1.41008
x1.a_n935_8875.t19                     1.41008
x1.a_n735_8972.t10                     1.41082
x1.vp.t13                                    0
x1.a_3329_8823.t41                 1.24087e-05
x1.a_n935_8875.t1                      1.41008
x1.vn.t14                          1.32473e-05
x1.a_3329_8823.t72                 1.24085e-05
x1.vss.t312                        1.36674e-05
x1.vdd.t52                                 1.7
x1.vdd.t50                                 1.7
x1.vdd.t51                                 1.7
x1.vout.t44                        1.32146e-05
x1.ibias.t91                          0.646957
x1.a_n1962_4406.t10                1.22528e-05
x1.vss.t57                         1.21103e-05
x1.vss.t55                         1.21103e-05
x1.a_n1962_4406.t63                1.22538e-05
x1.a_3329_8823.t30                 1.24054e-05
x1.ibias.t92                          0.646957
x1.a_3868_4185.t7                  1.21384e-05
x1.vdd.t49                                 1.7
x1.vdd.t46                                 1.7
x1.vdd.t48                                 1.7
x1.vout.t82                        1.32618e-05
x1.a_n735_8972.t51                     1.41082
x1.vdd.t100                                1.7
x1.vout.t36                         1.3215e-05
x1.ibias.t93                          0.646957
x1.a_n1962_4406.t9                 1.22541e-05
x1.vout.t37                        1.32153e-05
x1.ibias.t94                          0.646957
x1.a_n1962_4406.t8                 1.22541e-05
x1.a_3329_8823.t22                 1.24054e-05
x1.ibias.t95                          0.646957
x1.a_3868_4185.t6                  1.21383e-05
x1.a_3329_8823.t60                 1.24085e-05
x1.vp.t14                                    0
x1.a_n735_8972.t9                      1.41082
x1.vss.t213                        1.34974e-05
x1.a_n1962_4406.t85                1.22512e-05
x1.en.t75                                  1.7
x1.vss.t236                        1.21224e-05
x1.a_9909_7861.t1                      1.41082
x1.vout.t78                        1.32321e-05
x1.a_3868_4185.t42                 1.21383e-05
x1.vss.t53                          1.2087e-05
x1.vss.t54                          1.2087e-05
x1.vout.t80                         1.3262e-05
x1.a_n735_8972.t52                     1.41082
x1.vdd.t98                                 1.7
x1.a_n1962_4406.t7                 1.22527e-05
x1.ibias.t96                          0.646957
x1.vout.t12                         1.3215e-05
x1.a_n1962_4406.t6                 1.22526e-05
x1.ibias.t97                          0.646957
x1.vout.t5                         1.32153e-05
x1.a_3868_4185.t63                 1.21374e-05
x1.en.t76                                  1.7
x1.vss.t235                        1.20933e-05
x1.vss.t234                        1.20933e-05
x1.en.t77                                  1.7
x1.a_3868_4185.t62                 1.21377e-05
x1.vss.t233                        1.20933e-05
x1.en.t78                                  1.7
x1.a_3868_4185.t61                 1.21377e-05
x1.a_3868_4185.t41                 1.21383e-05
x1.vss.t50                          1.2087e-05
x1.vss.t52                          1.2087e-05
x1.a_n735_8972.t6                      1.41082
x1.a_n935_8875.t41                     1.41008
x1.vdd.t34                                 1.7
x1.a_n735_8972.t3                      1.41082
x1.vss.t47                         1.22034e-05
x1.vss.t49                         1.22039e-05
x1.vss.t48                         1.32956e-05
x1.a_n1962_4406.t84                1.22523e-05
x1.en.t79                                  1.7
x1.vss.t223                        1.21275e-05
x1.vss.t232                        1.21224e-05
x1.en.t80                                  1.7
x1.a_n1962_4406.t83                1.22522e-05
x1.vout.t1                         1.32149e-05
x1.ibias.t98                          0.646957
x1.a_n1962_4406.t5                 1.22528e-05
x1.vss.t46                         1.21103e-05
x1.vss.t44                         1.21103e-05
x1.vss.t43                         7.08494e-05
x1.vss.t42                         6.35062e-05
x1.a_3868_4185.t60                 1.21374e-05
x1.en.t81                                  1.7
x1.vss.t231                        1.20933e-05
x1.a_3329_8823.t76                 1.24087e-05
x1.vp.t15                                    0
x1.a_n735_8972.t8                      1.41082
x1.a_n1962_4406.t62                1.22515e-05
x1.vss.t40                         1.21103e-05
x1.vss.t41                         1.21103e-05
x1.vss.t228                        1.21189e-05
x1.en.t82                                  1.7
x1.a_n1962_4406.t82                1.22521e-05
x1.vout.t7                         1.32153e-05
x1.ibias.t99                          0.646957
x1.a_n1962_4406.t4                 1.22528e-05
x1.a_n1962_4406.t61                1.22515e-05
x1.vss.t37                         1.21103e-05
x1.vss.t39                         1.21103e-05
x1.vss.t230                        1.21152e-05
x1.en.t83                                  1.7
x1.a_n1962_4406.t81                1.22521e-05
x1.vss.t229                        1.20933e-05
x1.en.t84                                  1.7
x1.a_3868_4185.t59                 1.21377e-05
x1.vss.t227                        7.54894e-05
x1.en.t85                                  1.7
x1.a_8862_4192.t6                   0.00151562
x1.vss.t226                        1.20933e-05
x1.en.t86                                  1.7
x1.a_3868_4185.t58                 1.21377e-05
x1.vss.t36                         1.21103e-05
x1.vss.t35                         1.21103e-05
x1.a_3868_4185.t5                  1.21379e-05
x1.ibias.t100                         0.646957
x1.a_3329_8823.t15                 1.24054e-05
x1.a_3868_4185.t4                  1.21379e-05
x1.ibias.t101                         0.646957
x1.a_3329_8823.t37                 1.24053e-05
x1.a_n1962_4406.t3                 1.22551e-05
x1.ibias.t102                         0.646957
x1.vout.t48                        1.32144e-05
x1.a_8862_4192.t5                   0.00151569
x1.en.t87                                  1.7
x1.vss.t225                        0.000104383
x1.vout.t60                        1.32614e-05
x1.a_n735_8972.t53                     1.41082
x1.vdd.t3                                  1.7
x1.vdd.t6                                  1.7
x1.a_n735_8972.t54                     1.41082
x1.vout.t61                        1.32611e-05
x1.a_n1962_4406.t80                1.22523e-05
x1.en.t88                                  1.7
x1.vss.t224                        1.21259e-05
x1.a_3329_8823.t33                 1.24054e-05
x1.ibias.t103                         0.646957
x1.a_3868_4185.t3                  1.21379e-05
x1.ibias.t8                           0.646855
x1.vss.t33                         5.67393e-05
x1.vss.t34                         5.67396e-05
x1.vss.t32                         5.86472e-05
x1.vss.t29                         5.86986e-05
x1.vss.t31                         7.34007e-05
x1.vout.t33                        1.32147e-05
x1.ibias.t104                         0.646957
x1.a_n1962_4406.t2                 1.22527e-05
x1.a_3329_8823.t20                 1.24053e-05
x1.ibias.t105                         0.646957
x1.a_3868_4185.t2                  1.21379e-05
x1.vss.t28                          1.2087e-05
x1.vss.t26                          1.2087e-05
x1.a_3868_4185.t40                 1.21383e-05
x1.vdd.t45                                 1.7
x1.vdd.t43                                 1.7
x1.vdd.t42                                 1.7
x1.vdd.t39                                 1.7
x1.vdd.t41                                 1.7
x1.a_3868_4185.t1                  1.21386e-05
x1.ibias.t106                         0.646957
x1.a_3329_8823.t31                 1.24054e-05
x1.a_3868_4185.t57                 1.21377e-05
x1.en.t89                                  1.7
x1.vss.t222                        1.20933e-05
x1.a_3329_8823.t19                 1.24053e-05
x1.ibias.t107                         0.646957
x1.a_3868_4185.t0                  1.21386e-05
x1.a_3868_4185.t56                 1.21377e-05
x1.en.t90                                  1.7
x1.vss.t221                        1.20933e-05
x1.a_n1962_4406.t1                 1.22527e-05
x1.ibias.t108                         0.646957
x1.vout.t27                        1.32149e-05
x1.vss.t25                         1.21103e-05
x1.vss.t24                         1.21103e-05
x1.a_n1962_4406.t60                1.22538e-05
x1.vss.t23                         6.83986e-05
x1.vss.t21                         6.10561e-05
x1.vss.t220                        7.39969e-05
x1.en.t91                                  1.7
x1.a_8862_4192.t4                   0.00151548
x1.a_n935_8875.t0                      1.41008
x1.vn.t15                          1.32473e-05
x1.a_3329_8823.t44                 1.24087e-05
x1.a_n1962_4406.t0                 1.22541e-05
x1.ibias.t109                         0.646957
x1.vout.t59                        1.32153e-05
x1.en.n0                                   1.7
x1.en.n3                                   1.7
x1.en.n7                                   1.7
x1.en.n11                                  1.7
x1.en.n15                                  1.7
x1.en.n38                                  1.7
x1.en.n41                                  1.7
x1.en.n44                                  1.7
x1.en.n50                                  1.7
x1.en.n56                                  1.7
x1.en.n62                                  1.7
x1.en.n68                                  1.7
x1.en.n74                                  1.7
x1.en.n80                                  1.7
x1.en.n19                                  1.7
x1.en.n22                                  1.7
x1.en.n26                                  1.7
x1.en.n30                                  1.7
x1.en.n34                                  1.7
x1.en.n87                                  1.7
x1.en.n89                                  1.7
x1.en.n88                                  1.7
x1.en.n2                                   1.7
x1.en.n1                                   1.7
x1.en.n5                                   1.7
x1.en.n4                                   1.7
x1.en.n9                                   1.7
x1.en.n8                                   1.7
x1.en.n13                                  1.7
x1.en.n12                                  1.7
x1.en.n17                                  1.7
x1.en.n16                                  1.7
x1.en.n39                                  1.7
x1.en.n40                                  1.7
x1.en.n42                                  1.7
x1.en.n43                                  1.7
x1.en.n45                                  1.7
x1.en.n46                                  1.7
x1.en.n47                                  1.7
x1.en.n48                                  1.7
x1.en.n51                                  1.7
x1.en.n52                                  1.7
x1.en.n53                                  1.7
x1.en.n54                                  1.7
x1.en.n57                                  1.7
x1.en.n58                                  1.7
x1.en.n59                                  1.7
x1.en.n60                                  1.7
x1.en.n63                                  1.7
x1.en.n64                                  1.7
x1.en.n65                                  1.7
x1.en.n66                                  1.7
x1.en.n69                                  1.7
x1.en.n70                                  1.7
x1.en.n71                                  1.7
x1.en.n72                                  1.7
x1.en.n75                                  1.7
x1.en.n76                                  1.7
x1.en.n77                                  1.7
x1.en.n78                                  1.7
x1.en.n81                                  1.7
x1.en.n82                                  1.7
x1.en.n20                                  1.7
x1.en.n21                                  1.7
x1.en.n23                                  1.7
x1.en.n24                                  1.7
x1.en.n27                                  1.7
x1.en.n28                                  1.7
x1.en.n31                                  1.7
x1.en.n32                                  1.7
x1.en.n35                                  1.7
x1.en.n36                                  1.7
x1.en.n84                                  1.7
x1.en.n83                                  1.7
x1.en.n90                                  1.7
x1.en.n49                                  1.7
x1.en.n25                                  1.7
x1.en.n29                                  1.7
x1.en.n37                                  1.7
x1.en.n6                                   1.7
x1.en.n61                                  1.7
x1.en.n73                                  1.7
x1.en.n10                                  1.7
x1.en.n14                                  1.7
x1.en.n18                                  1.7
x1.en.n33                                  1.7
x1.en.n55                                  1.7
x1.en.n67                                  1.7
x1.en.n79                                  1.7
x1.en.n86                                  1.7
x1.en.n85                                  1.7
x1.vss.n1977                       1.42917e-05
x1.vss.n1888                       5.86305e-05
x1.vss.n2092                       1.29062e-05
x1.vss.n1496                       1.22232e-05
x1.vss.n2383                       5.84255e-05
x1.vss.n123                        5.88125e-05
x1.vss.n1376                        1.2222e-05
x1.vss.n719                        1.22227e-05
x1.vss.n1211                       1.21979e-05
x1.vss.n825                        1.21902e-05
x1.vss.n2192                       1.43036e-05
x1.vss.n243                        1.43844e-05
x1.vss.n2109                       1.27489e-05
x1.vss.n668                        1.25828e-05
x1.vss.n2129                       1.35067e-05
x1.vss.n317                        1.34269e-05
x1.vss.n661                         1.3424e-05
x1.vss.n314                        1.35022e-05
x1.vss.n2337                       4.98528e-05
x1.vss.n165                        4.89498e-05
x1.vss.n1494                       1.22226e-05
x1.vss.n722                         1.2222e-05
x1.vss.n1905                       1.42105e-05
x1.vss.n1529                       1.41201e-05
x1.vss.n187                        4.89999e-05
x1.vss.n167                        4.99035e-05
x1.vss.n2224                       1.59924e-05
x1.vss.n213                        1.63414e-05
x1.vss.n590                        1.48662e-05
x1.vss.n211                        1.49643e-05
x1.vss.n1207                       1.22291e-05
x1.vss.n826                        1.22352e-05
x1.vss.n2090                       1.30017e-05
x1.vss.n1499                       1.31048e-05
x1.vss.n1886                       5.87028e-05
x1.vss.n1534                       5.87435e-05
x1.vss.n1879                       5.87028e-05
x1.vss.n1878                       5.87435e-05
x1.vss.n1639                       5.78611e-05
x1.vss.n127                         5.7436e-05
x1.vss.n524                        1.65954e-05
x1.vss.n523                        1.65856e-05
x1.vss.n568                        1.61685e-05
x1.vss.n567                        1.62851e-05
x1.vss.n1663                       5.83394e-05
x1.vss.n1662                       5.83108e-05
x1.vss.n1707                       5.86553e-05
x1.vss.n1706                       5.85959e-05
x1.vss.n2335                       4.81022e-05
x1.vss.n2226                       1.66583e-05
x1.vss.n164                        4.96218e-05
x1.vss.n2333                       4.87952e-05
x1.vss.n2332                       4.94171e-05
x1.vss.n2331                       4.92396e-05
x1.vss.n2227                       4.86883e-05
x1.vss.n2330                       4.90862e-05
x1.vss.n2329                       4.86049e-05
x1.vss.n2328                       4.89539e-05
x1.vss.n2327                       4.85359e-05
x1.vss.n2326                       4.84774e-05
x1.vss.n2325                       4.88399e-05
x1.vss.n2324                       4.87418e-05
x1.vss.n2323                       4.84273e-05
x1.vss.n2322                       4.83843e-05
x1.vss.n2321                       4.86574e-05
x1.vss.n2320                       4.85849e-05
x1.vss.n2319                       4.83475e-05
x1.vss.n2318                        4.8316e-05
x1.vss.n2317                       4.85229e-05
x1.vss.n2316                       4.84699e-05
x1.vss.n2315                        4.8289e-05
x1.vss.n2314                       4.82661e-05
x1.vss.n2313                       4.84248e-05
x1.vss.n2312                       4.83866e-05
x1.vss.n2311                       4.82468e-05
x1.vss.n2310                       4.82305e-05
x1.vss.n2309                       4.83546e-05
x1.vss.n2308                        4.8328e-05
x1.vss.n2307                        4.8217e-05
x1.vss.n2306                       4.82059e-05
x1.vss.n2305                       4.83063e-05
x1.vss.n2304                        4.8289e-05
x1.vss.n2303                       4.81971e-05
x1.vss.n2302                       4.81904e-05
x1.vss.n2301                       4.82757e-05
x1.vss.n2300                       4.82661e-05
x1.vss.n2299                       4.81855e-05
x1.vss.n2298                       4.81824e-05
x1.vss.n2297                         4.826e-05
x1.vss.n2296                       4.82574e-05
x1.vss.n2295                       4.81811e-05
x1.vss.n2294                       4.81814e-05
x1.vss.n2293                        4.8258e-05
x1.vss.n2292                       4.82621e-05
x1.vss.n2291                       4.81835e-05
x1.vss.n2290                       4.81873e-05
x1.vss.n2289                       4.82696e-05
x1.vss.n2288                       4.82806e-05
x1.vss.n2287                       4.81929e-05
x1.vss.n2286                       4.82005e-05
x1.vss.n2285                       4.82955e-05
x1.vss.n2284                       4.83146e-05
x1.vss.n2283                       4.82102e-05
x1.vss.n2282                       4.82222e-05
x1.vss.n2281                       4.83383e-05
x1.vss.n2280                        4.8367e-05
x1.vss.n2279                       4.82368e-05
x1.vss.n2278                       4.82543e-05
x1.vss.n2277                       4.84014e-05
x1.vss.n2276                       4.84423e-05
x1.vss.n2275                        4.8275e-05
x1.vss.n2274                       4.82995e-05
x1.vss.n2273                       4.84905e-05
x1.vss.n2272                        4.8547e-05
x1.vss.n2271                       4.83282e-05
x1.vss.n2270                       4.83619e-05
x1.vss.n2269                       4.86131e-05
x1.vss.n2268                       4.86902e-05
x1.vss.n2267                       4.84011e-05
x1.vss.n2266                       4.84467e-05
x1.vss.n2265                         4.878e-05
x1.vss.n2264                       4.88844e-05
x1.vss.n2263                          4.85e-05
x1.vss.n2262                       4.85621e-05
x1.vss.n2261                       4.90055e-05
x1.vss.n2260                       4.91461e-05
x1.vss.n2259                       4.86354e-05
x1.vss.n2258                       4.87239e-05
x1.vss.n2257                       4.93091e-05
x1.vss.n2256                       4.94976e-05
x1.vss.n2255                       4.88369e-05
x1.vss.n2254                        4.9715e-05
x1.vss.n2253                       5.05015e-05
x1.vss.n2336                       4.91837e-05
x1.vss.n2252                       5.07764e-05
x1.vss.n2251                       5.02714e-05
x1.vss.n166                        4.97355e-05
x1.vss.n2250                       5.10734e-05
x1.vss.n162                          5.066e-05
x1.vss.n2342                        5.0243e-05
x1.vss.n2249                       5.13885e-05
x1.vss.n161                         5.1051e-05
x1.vss.n2343                        5.0717e-05
x1.vss.n2248                       5.17184e-05
x1.vss.n160                        5.14396e-05
x1.vss.n2344                       5.11652e-05
x1.vss.n2247                       5.20605e-05
x1.vss.n2246                       5.18253e-05
x1.vss.n159                        5.15937e-05
x1.vss.n2245                       5.24128e-05
x1.vss.n155                        5.22086e-05
x1.vss.n2350                       5.20067e-05
x1.vss.n2244                       5.27742e-05
x1.vss.n154                        5.25903e-05
x1.vss.n2351                       5.24075e-05
x1.vss.n2243                       5.31435e-05
x1.vss.n153                        5.29712e-05
x1.vss.n2352                       5.27989e-05
x1.vss.n2242                       5.35204e-05
x1.vss.n2241                       5.33521e-05
x1.vss.n152                        5.31829e-05
x1.vss.n2240                       5.39047e-05
x1.vss.n148                        5.37336e-05
x1.vss.n2358                       5.35608e-05
x1.vss.n2239                       5.42964e-05
x1.vss.n147                        5.41164e-05
x1.vss.n2359                       5.39337e-05
x1.vss.n2238                        5.4696e-05
x1.vss.n146                        5.45011e-05
x1.vss.n2360                       5.43025e-05
x1.vss.n2237                       5.51042e-05
x1.vss.n2236                       5.48881e-05
x1.vss.n145                        5.46677e-05
x1.vss.n2235                       5.55218e-05
x1.vss.n141                        5.52782e-05
x1.vss.n2366                       5.50293e-05
x1.vss.n2234                         5.595e-05
x1.vss.n140                        5.56719e-05
x1.vss.n2367                       5.53875e-05
x1.vss.n2233                       5.63905e-05
x1.vss.n139                        5.60699e-05
x1.vss.n2368                       5.57422e-05
x1.vss.n2232                       5.68449e-05
x1.vss.n2231                       5.64726e-05
x1.vss.n135                        5.60929e-05
x1.vss.n2230                       5.73157e-05
x1.vss.n134                        5.68802e-05
x1.vss.n2374                       5.64388e-05
x1.vss.n2229                       5.78055e-05
x1.vss.n133                        5.72919e-05
x1.vss.n2375                       5.67791e-05
x1.vss.n2228                       5.83178e-05
x1.vss.n132                        5.77031e-05
x1.vss.n2376                       5.71127e-05
x1.vss.n124                        5.80978e-05
x1.vss.n122                         5.8857e-05
x1.vss.n126                        5.74382e-05
x1.vss.n2384                       5.94294e-05
x1.vss.n2382                       5.77551e-05
x1.vss.n121                        5.93732e-05
x1.vss.n1715                       5.88065e-05
x1.vss.n1714                       5.92438e-05
x1.vss.n1713                       5.91336e-05
x1.vss.n1638                       5.87701e-05
x1.vss.n1712                       5.90392e-05
x1.vss.n1711                       5.87286e-05
x1.vss.n1710                       5.86897e-05
x1.vss.n1709                       5.89585e-05
x1.vss.n1708                       5.88895e-05
x1.vss.n1705                       5.87721e-05
x1.vss.n1704                        5.8721e-05
x1.vss.n1703                         5.857e-05
x1.vss.n1702                       5.85475e-05
x1.vss.n1701                       5.86766e-05
x1.vss.n1700                       5.86378e-05
x1.vss.n1699                       5.85278e-05
x1.vss.n1698                       5.85105e-05
x1.vss.n1697                       5.86039e-05
x1.vss.n1696                        5.8574e-05
x1.vss.n1695                       5.84954e-05
x1.vss.n1694                       5.84819e-05
x1.vss.n1693                       5.85476e-05
x1.vss.n1692                       5.85241e-05
x1.vss.n1691                         5.847e-05
x1.vss.n1690                       5.84592e-05
x1.vss.n1689                       5.85029e-05
x1.vss.n1688                       5.84836e-05
x1.vss.n1687                       5.84494e-05
x1.vss.n1686                       5.84404e-05
x1.vss.n1685                       5.84658e-05
x1.vss.n1684                       5.84492e-05
x1.vss.n1683                       5.84319e-05
x1.vss.n1682                       5.84238e-05
x1.vss.n1681                       5.84333e-05
x1.vss.n1680                       5.84178e-05
x1.vss.n1679                        5.8416e-05
x1.vss.n1678                       5.84081e-05
x1.vss.n1677                       5.84024e-05
x1.vss.n1676                       5.83867e-05
x1.vss.n1675                       5.84002e-05
x1.vss.n1674                       5.83919e-05
x1.vss.n1673                       5.83704e-05
x1.vss.n1672                       5.83532e-05
x1.vss.n1671                       5.83832e-05
x1.vss.n1670                       5.83738e-05
x1.vss.n1669                       5.83347e-05
x1.vss.n1668                       5.83145e-05
x1.vss.n1667                       5.83635e-05
x1.vss.n1666                       5.83521e-05
x1.vss.n1665                       5.82922e-05
x1.vss.n1664                       5.82672e-05
x1.vss.n1661                       5.82109e-05
x1.vss.n1660                       5.81784e-05
x1.vss.n1659                       5.82943e-05
x1.vss.n1658                       5.82752e-05
x1.vss.n1657                       5.81408e-05
x1.vss.n1656                       5.80973e-05
x1.vss.n1655                       5.82531e-05
x1.vss.n1654                       5.82276e-05
x1.vss.n1653                        5.8047e-05
x1.vss.n1652                       5.79888e-05
x1.vss.n1651                        5.8198e-05
x1.vss.n1650                       5.81637e-05
x1.vss.n1649                       5.79215e-05
x1.vss.n1648                       5.78435e-05
x1.vss.n1647                       5.81238e-05
x1.vss.n1646                       5.80772e-05
x1.vss.n1645                       5.77533e-05
x1.vss.n1644                       5.76489e-05
x1.vss.n1643                       5.80218e-05
x1.vss.n1642                       5.79534e-05
x1.vss.n1641                       5.75282e-05
x1.vss.n1640                       5.73889e-05
x1.vss.n129                        5.69254e-05
x1.vss.n1718                       5.80454e-05
x1.vss.n2381                       5.72226e-05
x1.vss.n2380                       5.67431e-05
x1.vss.n2379                       5.65398e-05
x1.vss.n128                        5.69737e-05
x1.vss.n2378                       5.63175e-05
x1.vss.n2377                       5.67042e-05
x1.vss.n131                          5.642e-05
x1.vss.n130                        5.60783e-05
x1.vss.n2373                       5.61242e-05
x1.vss.n2372                       5.58241e-05
x1.vss.n2371                       5.55568e-05
x1.vss.n136                        5.58187e-05
x1.vss.n2370                        5.5278e-05
x1.vss.n2369                       5.55048e-05
x1.vss.n138                        5.51838e-05
x1.vss.n137                        5.49893e-05
x1.vss.n2365                       5.48567e-05
x1.vss.n2364                       5.46921e-05
x1.vss.n2363                       5.43877e-05
x1.vss.n142                        5.45241e-05
x1.vss.n2362                       5.40773e-05
x1.vss.n2361                       5.41867e-05
x1.vss.n144                        5.38449e-05
x1.vss.n143                        5.37621e-05
x1.vss.n2357                       5.34992e-05
x1.vss.n2356                       5.34433e-05
x1.vss.n2355                       5.31221e-05
x1.vss.n149                        5.31497e-05
x1.vss.n2354                       5.27996e-05
x1.vss.n2353                       5.27965e-05
x1.vss.n151                        5.24394e-05
x1.vss.n150                        5.24773e-05
x1.vss.n2349                       5.20784e-05
x1.vss.n2348                       5.21566e-05
x1.vss.n2347                       5.18394e-05
x1.vss.n156                         5.1713e-05
x1.vss.n2346                       5.15277e-05
x1.vss.n2345                       5.13428e-05
x1.vss.n158                        5.09675e-05
x1.vss.n157                        5.12241e-05
x1.vss.n2341                       5.05883e-05
x1.vss.n2340                       5.09317e-05
x1.vss.n2339                       5.06544e-05
x1.vss.n163                        5.02102e-05
x1.vss.n2338                       5.03965e-05
x1.vss.n1785                       5.94398e-05
x1.vss.n1617                         5.905e-05
x1.vss.n1616                       5.87224e-05
x1.vss.n1784                       5.94446e-05
x1.vss.n1783                        5.9038e-05
x1.vss.n1782                       5.86767e-05
x1.vss.n1779                       5.90035e-05
x1.vss.n1778                       5.94399e-05
x1.vss.n1780                       5.84679e-05
x1.vss.n1777                       5.94331e-05
x1.vss.n1720                        5.8968e-05
x1.vss.n1719                       5.82046e-05
x1.vss.n1776                        5.9428e-05
x1.vss.n1775                       5.89495e-05
x1.vss.n125                        5.79242e-05
x1.vss.n1536                       5.87819e-05
x1.vss.n1531                       5.86986e-05
x1.vss.n1877                       5.87617e-05
x1.vss.n1538                       5.87902e-05
x1.vss.n1876                       5.87336e-05
x1.vss.n1721                       5.87998e-05
x1.vss.n1537                       5.87795e-05
x1.vss.n1539                       5.87611e-05
x1.vss.n1722                       5.88102e-05
x1.vss.n1543                       5.87961e-05
x1.vss.n1870                       5.87838e-05
x1.vss.n1723                       5.88213e-05
x1.vss.n1544                       5.88116e-05
x1.vss.n1869                       5.88032e-05
x1.vss.n1724                       5.88328e-05
x1.vss.n1545                       5.88261e-05
x1.vss.n1868                       5.88204e-05
x1.vss.n1726                       5.88446e-05
x1.vss.n1725                         5.884e-05
x1.vss.n1546                       5.88361e-05
x1.vss.n1727                       5.88565e-05
x1.vss.n1550                       5.88534e-05
x1.vss.n1862                       5.88507e-05
x1.vss.n1728                       5.88687e-05
x1.vss.n1551                       5.88665e-05
x1.vss.n1861                       5.88647e-05
x1.vss.n1729                       5.88809e-05
x1.vss.n1552                       5.88794e-05
x1.vss.n1860                       5.88782e-05
x1.vss.n1731                       5.88931e-05
x1.vss.n1730                       5.88921e-05
x1.vss.n1553                       5.88913e-05
x1.vss.n1732                       5.89054e-05
x1.vss.n1557                       5.89048e-05
x1.vss.n1854                       5.89042e-05
x1.vss.n1733                       5.89178e-05
x1.vss.n1558                       5.89173e-05
x1.vss.n1853                        5.8917e-05
x1.vss.n1734                       5.89301e-05
x1.vss.n1559                       5.89299e-05
x1.vss.n1852                       5.89296e-05
x1.vss.n1736                       5.89425e-05
x1.vss.n1735                       5.89423e-05
x1.vss.n1560                       5.89422e-05
x1.vss.n1737                       5.89549e-05
x1.vss.n1564                       5.89548e-05
x1.vss.n1846                       5.89547e-05
x1.vss.n1738                       5.89673e-05
x1.vss.n1565                       5.89672e-05
x1.vss.n1845                       5.89672e-05
x1.vss.n1739                       5.89797e-05
x1.vss.n1566                       5.89797e-05
x1.vss.n1844                       5.89797e-05
x1.vss.n1741                       5.89921e-05
x1.vss.n1740                       5.89921e-05
x1.vss.n1567                       5.89921e-05
x1.vss.n1742                       5.90045e-05
x1.vss.n1571                       5.90045e-05
x1.vss.n1838                       5.90045e-05
x1.vss.n1743                       5.90169e-05
x1.vss.n1572                       5.90169e-05
x1.vss.n1837                        5.9017e-05
x1.vss.n1744                       5.90293e-05
x1.vss.n1573                       5.90293e-05
x1.vss.n1836                       5.90294e-05
x1.vss.n1746                       5.90417e-05
x1.vss.n1745                       5.90417e-05
x1.vss.n1574                       5.90418e-05
x1.vss.n1747                        5.9054e-05
x1.vss.n1578                       5.90541e-05
x1.vss.n1830                       5.90542e-05
x1.vss.n1748                       5.90664e-05
x1.vss.n1579                       5.90665e-05
x1.vss.n1829                       5.90666e-05
x1.vss.n1749                       5.90788e-05
x1.vss.n1580                       5.90789e-05
x1.vss.n1828                        5.9079e-05
x1.vss.n1751                       5.90912e-05
x1.vss.n1750                       5.90912e-05
x1.vss.n1581                       5.90913e-05
x1.vss.n1752                       5.91035e-05
x1.vss.n1585                       5.91036e-05
x1.vss.n1822                       5.91036e-05
x1.vss.n1753                       5.91159e-05
x1.vss.n1586                       5.91159e-05
x1.vss.n1821                       5.91159e-05
x1.vss.n1754                       5.91283e-05
x1.vss.n1587                       5.91282e-05
x1.vss.n1820                       5.91281e-05
x1.vss.n1756                       5.91407e-05
x1.vss.n1755                       5.91404e-05
x1.vss.n1588                       5.91403e-05
x1.vss.n1757                       5.91531e-05
[...]
 Reference value :  7.56279e-06
 Reference value :  7.58279e-06
 Reference value :  7.60279e-06
 Reference value :  7.62279e-06
 Reference value :  7.64279e-06
 Reference value :  7.66279e-06
 Reference value :  7.68279e-06
 Reference value :  7.70279e-06
 Reference value :  7.72279e-06
 Reference value :  7.74279e-06
 Reference value :  7.76279e-06
 Reference value :  7.78279e-06
 Reference value :  7.80279e-06
 Reference value :  7.82279e-06
 Reference value :  7.84279e-06
 Reference value :  7.85279e-06
 Reference value :  7.87279e-06
 Reference value :  7.89279e-06
 Reference value :  7.91279e-06
 Reference value :  7.93279e-06
 Reference value :  7.95279e-06
 Reference value :  7.97279e-06
 Reference value :  7.99279e-06
 Reference value :  8.01279e-06
 Reference value :  8.03279e-06
 Reference value :  8.05279e-06
 Reference value :  8.07279e-06
 Reference value :  8.09279e-06
 Reference value :  8.12279e-06
 Reference value :  8.14279e-06
 Reference value :  8.16279e-06
 Reference value :  8.19279e-06
 Reference value :  8.21279e-06
 Reference value :  8.24279e-06
 Reference value :  8.26279e-06
 Reference value :  8.28279e-06
 Reference value :  8.29279e-06
 Reference value :  8.31279e-06
 Reference value :  8.33279e-06
 Reference value :  8.35279e-06
 Reference value :  8.37279e-06
 Reference value :  8.39279e-06
 Reference value :  8.41279e-06
 Reference value :  8.43279e-06
 Reference value :  8.45279e-06
 Reference value :  8.47279e-06
 Reference value :  8.49279e-06
 Reference value :  8.51279e-06
 Reference value :  8.53279e-06
 Reference value :  8.55279e-06
 Reference value :  8.57279e-06
 Reference value :  8.59279e-06
 Reference value :  8.61279e-06
 Reference value :  8.63279e-06
 Reference value :  8.65279e-06
 Reference value :  8.67279e-06
 Reference value :  8.69279e-06
 Reference value :  8.71279e-06
 Reference value :  8.73279e-06
 Reference value :  8.75279e-06
 Reference value :  8.77279e-06
 Reference value :  8.79279e-06
 Reference value :  8.81279e-06
 Reference value :  8.83279e-06
 Reference value :  8.85279e-06
 Reference value :  8.87279e-06
 Reference value :  8.89279e-06
 Reference value :  8.91279e-06
 Reference value :  8.93279e-06
 Reference value :  8.95279e-06
 Reference value :  8.97279e-06
 Reference value :  8.99279e-06
 Reference value :  9.01279e-06
 Reference value :  9.03279e-06
 Reference value :  9.05279e-06
 Reference value :  9.07279e-06
 Reference value :  9.09279e-06
 Reference value :  9.11279e-06
 Reference value :  9.13279e-06
 Reference value :  9.15279e-06
 Reference value :  9.17279e-06
 Reference value :  9.19279e-06
 Reference value :  9.21279e-06
 Reference value :  9.23279e-06
 Reference value :  9.25279e-06
 Reference value :  9.27279e-06
 Reference value :  9.29279e-06
 Reference value :  9.31279e-06
 Reference value :  9.33279e-06
 Reference value :  9.35279e-06
 Reference value :  9.37279e-06
 Reference value :  9.39279e-06
 Reference value :  9.41279e-06
 Reference value :  9.43279e-06
 Reference value :  9.45279e-06
 Reference value :  9.47279e-06
 Reference value :  9.49279e-06
 Reference value :  9.51279e-06
 Reference value :  9.53279e-06
 Reference value :  9.55279e-06
 Reference value :  9.57279e-06
 Reference value :  9.59279e-06
 Reference value :  9.61279e-06
 Reference value :  9.63279e-06
 Reference value :  9.65279e-06
 Reference value :  9.67279e-06
 Reference value :  9.69279e-06
 Reference value :  9.71279e-06
 Reference value :  9.73279e-06
 Reference value :  9.75279e-06
 Reference value :  9.77279e-06
 Reference value :  9.79279e-06
 Reference value :  9.81279e-06
 Reference value :  9.83279e-06
 Reference value :  9.85279e-06
 Reference value :  9.87279e-06
 Reference value :  9.89279e-06
 Reference value :  9.91279e-06
 Reference value :  9.93279e-06
 Reference value :  9.95279e-06
 Reference value :  9.97279e-06
 Reference value :  9.99279e-06
 Reference value :  1.00128e-05
 Reference value :  1.00328e-05
 Reference value :  1.00528e-05
 Reference value :  1.00728e-05
 Reference value :  1.00928e-05
 Reference value :  1.01128e-05
 Reference value :  1.01328e-05
 Reference value :  1.01528e-05
 Reference value :  1.01628e-05
 Reference value :  1.01828e-05
 Reference value :  1.02028e-05
 Reference value :  1.02228e-05
 Reference value :  1.02428e-05
 Reference value :  1.02628e-05
 Reference value :  1.02828e-05
 Reference value :  1.03028e-05
 Reference value :  1.03228e-05
 Reference value :  1.03428e-05
 Reference value :  1.03628e-05
 Reference value :  1.03728e-05
 Reference value :  1.03928e-05
 Reference value :  1.04128e-05
 Reference value :  1.04328e-05
 Reference value :  1.04528e-05
 Reference value :  1.04728e-05
 Reference value :  1.04928e-05
 Reference value :  1.05128e-05
 Reference value :  1.05328e-05
 Reference value :  1.05528e-05
 Reference value :  1.05728e-05
 Reference value :  1.05928e-05
 Reference value :  1.06028e-05
 Reference value :  1.06128e-05
 Reference value :  1.06328e-05
 Reference value :  1.06528e-05
 Reference value :  1.06728e-05
 Reference value :  1.06928e-05
 Reference value :  1.07028e-05
 Reference value :  1.07228e-05
 Reference value :  1.07428e-05
 Reference value :  1.07628e-05
 Reference value :  1.07828e-05
 Reference value :  1.08028e-05
 Reference value :  1.08228e-05
 Reference value :  1.08428e-05
 Reference value :  1.08628e-05
 Reference value :  1.08828e-05
 Reference value :  1.09028e-05
 Reference value :  1.09228e-05
 Reference value :  1.09428e-05
 Reference value :  1.09628e-05
 Reference value :  1.09828e-05
 Reference value :  1.10028e-05
 Reference value :  1.10228e-05
 Reference value :  1.10428e-05
 Reference value :  1.10628e-05
 Reference value :  1.10828e-05
 Reference value :  1.11028e-05
 Reference value :  1.11228e-05
 Reference value :  1.11528e-05
 Reference value :  1.11728e-05
 Reference value :  1.11928e-05
 Reference value :  1.12128e-05
 Reference value :  1.12328e-05
 Reference value :  1.12528e-05
 Reference value :  1.12728e-05
 Reference value :  1.12928e-05
 Reference value :  1.13128e-05
 Reference value :  1.13328e-05
 Reference value :  1.13528e-05
 Reference value :  1.13728e-05
 Reference value :  1.13928e-05
 Reference value :  1.14128e-05
 Reference value :  1.14328e-05
 Reference value :  1.14528e-05
 Reference value :  1.14728e-05
 Reference value :  1.14928e-05
 Reference value :  1.15128e-05
 Reference value :  1.15328e-05
 Reference value :  1.15528e-05
 Reference value :  1.15728e-05
 Reference value :  1.15928e-05
 Reference value :  1.16128e-05
 Reference value :  1.16328e-05
 Reference value :  1.16528e-05
 Reference value :  1.16728e-05
 Reference value :  1.16928e-05
 Reference value :  1.17128e-05
 Reference value :  1.17328e-05
 Reference value :  1.17528e-05
 Reference value :  1.17728e-05
 Reference value :  1.17928e-05
 Reference value :  1.18128e-05
 Reference value :  1.18328e-05
 Reference value :  1.18428e-05
 Reference value :  1.18628e-05
 Reference value :  1.18828e-05
 Reference value :  1.19028e-05
 Reference value :  1.19228e-05
 Reference value :  1.19428e-05
 Reference value :  1.19628e-05
 Reference value :  1.19828e-05
 Reference value :  1.20028e-05
 Reference value :  1.20228e-05
 Reference value :  1.20428e-05
 Reference value :  1.20628e-05
 Reference value :  1.20828e-05
 Reference value :  1.21028e-05
 Reference value :  1.21228e-05
 Reference value :  1.21428e-05
 Reference value :  1.21628e-05
 Reference value :  1.21828e-05
 Reference value :  1.22028e-05
 Reference value :  1.22228e-05
 Reference value :  1.22428e-05
 Reference value :  1.22628e-05
 Reference value :  1.22828e-05
 Reference value :  1.23028e-05
 Reference value :  1.23228e-05
 Reference value :  1.23528e-05
 Reference value :  1.23728e-05
 Reference value :  1.23928e-05
 Reference value :  1.24128e-05
 Reference value :  1.24428e-05
 Reference value :  1.24628e-05
 Reference value :  1.24828e-05
 Reference value :  1.25028e-05
 Reference value :  1.25228e-05
 Reference value :  1.25428e-05
 Reference value :  1.25728e-05
 Reference value :  1.26028e-05
 Reference value :  1.26228e-05
 Reference value :  1.26428e-05
 Reference value :  1.26628e-05
 Reference value :  1.26828e-05
 Reference value :  1.27128e-05
 Reference value :  1.27328e-05
 Reference value :  1.27528e-05
 Reference value :  1.27728e-05
 Reference value :  1.28028e-05
 Reference value :  1.28228e-05
 Reference value :  1.28428e-05
 Reference value :  1.28628e-05
 Reference value :  1.28828e-05
 Reference value :  1.29028e-05
 Reference value :  1.29228e-05
 Reference value :  1.29428e-05
 Reference value :  1.29628e-05
 Reference value :  1.29828e-05
 Reference value :  1.30028e-05
 Reference value :  1.30228e-05
 Reference value :  1.30428e-05
 Reference value :  1.30628e-05
 Reference value :  1.30828e-05
 Reference value :  1.30928e-05
 Reference value :  1.31128e-05
 Reference value :  1.31328e-05
 Reference value :  1.31528e-05
 Reference value :  1.31728e-05
 Reference value :  1.31928e-05
 Reference value :  1.32228e-05
 Reference value :  1.32428e-05
 Reference value :  1.32628e-05
 Reference value :  1.32828e-05
 Reference value :  1.33028e-05
 Reference value :  1.33228e-05
 Reference value :  1.33428e-05
 Reference value :  1.33628e-05
 Reference value :  1.33828e-05
 Reference value :  1.34028e-05
 Reference value :  1.34328e-05
 Reference value :  1.34528e-05
 Reference value :  1.34728e-05
 Reference value :  1.34928e-05
 Reference value :  1.35228e-05
 Reference value :  1.35428e-05
 Reference value :  1.35628e-05
 Reference value :  1.35928e-05
 Reference value :  1.36128e-05
 Reference value :  1.36328e-05
 Reference value :  1.36528e-05
 Reference value :  1.36728e-05
 Reference value :  1.36928e-05
 Reference value :  1.37228e-05
 Reference value :  1.37428e-05
 Reference value :  1.37628e-05
 Reference value :  1.37828e-05
 Reference value :  1.38028e-05
 Reference value :  1.38228e-05
 Reference value :  1.38428e-05
 Reference value :  1.38628e-05
 Reference value :  1.38828e-05
 Reference value :  1.39128e-05
 Reference value :  1.39328e-05
 Reference value :  1.39528e-05
 Reference value :  1.39728e-05
 Reference value :  1.39928e-05
 Reference value :  1.40128e-05
 Reference value :  1.40328e-05
 Reference value :  1.40528e-05
 Reference value :  1.40728e-05
 Reference value :  1.40928e-05
 Reference value :  1.41128e-05
 Reference value :  1.41328e-05
 Reference value :  1.41528e-05
 Reference value :  1.41728e-05
 Reference value :  1.41928e-05
 Reference value :  1.42128e-05
 Reference value :  1.42328e-05
 Reference value :  1.42528e-05
 Reference value :  1.42728e-05
 Reference value :  1.42928e-05
 Reference value :  1.43128e-05
 Reference value :  1.43328e-05
 Reference value :  1.43528e-05
 Reference value :  1.43728e-05
 Reference value :  1.43928e-05
 Reference value :  1.44128e-05
 Reference value :  1.44328e-05
 Reference value :  1.44528e-05
 Reference value :  1.44728e-05
 Reference value :  1.44928e-05
 Reference value :  1.45128e-05
 Reference value :  1.45328e-05
 Reference value :  1.45528e-05
 Reference value :  1.45728e-05
 Reference value :  1.45928e-05
 Reference value :  1.46128e-05
 Reference value :  1.46328e-05
 Reference value :  1.46528e-05
 Reference value :  1.46728e-05
 Reference value :  1.46928e-05
 Reference value :  1.47128e-05
 Reference value :  1.47328e-05
 Reference value :  1.47528e-05
 Reference value :  1.47728e-05
 Reference value :  1.47928e-05
 Reference value :  1.48128e-05
 Reference value :  1.48328e-05
 Reference value :  1.48528e-05
 Reference value :  1.48728e-05
 Reference value :  1.48928e-05
 Reference value :  1.49128e-05
 Reference value :  1.49328e-05
 Reference value :  1.49528e-05
 Reference value :  1.49728e-05
 Reference value :  1.49928e-05
 Reference value :  1.50128e-05
 Reference value :  1.50328e-05
 Reference value :  1.50528e-05
 Reference value :  1.50728e-05
 Reference value :  1.50928e-05
 Reference value :  1.51128e-05
 Reference value :  1.51328e-05
 Reference value :  1.51528e-05
 Reference value :  1.51728e-05
 Reference value :  1.51928e-05
 Reference value :  1.52128e-05
 Reference value :  1.52328e-05
 Reference value :  1.52628e-05
 Reference value :  1.52828e-05
 Reference value :  1.53028e-05
 Reference value :  1.53228e-05
 Reference value :  1.53428e-05
 Reference value :  1.53628e-05
 Reference value :  1.53828e-05
 Reference value :  1.54028e-05
 Reference value :  1.54228e-05
 Reference value :  1.54428e-05
 Reference value :  1.54628e-05
 Reference value :  1.54828e-05
 Reference value :  1.55028e-05
 Reference value :  1.55228e-05
 Reference value :  1.55428e-05
 Reference value :  1.55628e-05
 Reference value :  1.55728e-05
 Reference value :  1.55928e-05
 Reference value :  1.56128e-05
 Reference value :  1.56328e-05
 Reference value :  1.56528e-05
 Reference value :  1.56728e-05
 Reference value :  1.56928e-05
 Reference value :  1.57128e-05
 Reference value :  1.57328e-05
 Reference value :  1.57528e-05
 Reference value :  1.57728e-05
 Reference value :  1.57928e-05
 Reference value :  1.58128e-05
 Reference value :  1.58328e-05
 Reference value :  1.58528e-05
 Reference value :  1.58728e-05
 Reference value :  1.58928e-05
 Reference value :  1.59128e-05
 Reference value :  1.59328e-05
 Reference value :  1.59528e-05
 Reference value :  1.59728e-05
 Reference value :  1.59928e-05
 Reference value :  1.60128e-05
 Reference value :  1.60328e-05
 Reference value :  1.60528e-05
 Reference value :  1.60728e-05
 Reference value :  1.60928e-05
 Reference value :  1.61128e-05
 Reference value :  1.61328e-05
 Reference value :  1.61528e-05
 Reference value :  1.61728e-05
 Reference value :  1.61928e-05
 Reference value :  1.62128e-05
 Reference value :  1.62328e-05
 Reference value :  1.62528e-05
 Reference value :  1.62728e-05
 Reference value :  1.62928e-05
 Reference value :  1.63128e-05
 Reference value :  1.63328e-05
 Reference value :  1.63528e-05
 Reference value :  1.63728e-05
 Reference value :  1.63928e-05
 Reference value :  1.64128e-05
 Reference value :  1.64328e-05
 Reference value :  1.64528e-05
 Reference value :  1.64728e-05
 Reference value :  1.64928e-05
 Reference value :  1.65128e-05
 Reference value :  1.65328e-05
 Reference value :  1.65528e-05
 Reference value :  1.65728e-05
 Reference value :  1.65928e-05
 Reference value :  1.66128e-05
 Reference value :  1.66328e-05
 Reference value :  1.66528e-05
 Reference value :  1.66728e-05
 Reference value :  1.66928e-05
 Reference value :  1.67128e-05
 Reference value :  1.67328e-05
 Reference value :  1.67628e-05
 Reference value :  1.67828e-05
 Reference value :  1.68028e-05
 Reference value :  1.68228e-05
 Reference value :  1.68428e-05
 Reference value :  1.68628e-05
 Reference value :  1.68828e-05
 Reference value :  1.69028e-05
 Reference value :  1.69228e-05
 Reference value :  1.69428e-05
 Reference value :  1.69628e-05
 Reference value :  1.69828e-05
 Reference value :  1.70028e-05
 Reference value :  1.70228e-05
 Reference value :  1.70428e-05
 Reference value :  1.70628e-05
 Reference value :  1.70828e-05
 Reference value :  1.71028e-05
 Reference value :  1.71228e-05
 Reference value :  1.71428e-05
 Reference value :  1.71628e-05
 Reference value :  1.71828e-05
 Reference value :  1.72028e-05
 Reference value :  1.72228e-05
 Reference value :  1.72428e-05
 Reference value :  1.72628e-05
 Reference value :  1.72828e-05
 Reference value :  1.73028e-05
 Reference value :  1.73228e-05
 Reference value :  1.73428e-05
 Reference value :  1.73628e-05
 Reference value :  1.73728e-05
 Reference value :  1.73928e-05
 Reference value :  1.74128e-05
 Reference value :  1.74328e-05
 Reference value :  1.74528e-05
 Reference value :  1.74728e-05
 Reference value :  1.74928e-05
 Reference value :  1.75128e-05
 Reference value :  1.75428e-05
 Reference value :  1.75728e-05
 Reference value :  1.76028e-05
 Reference value :  1.76228e-05
 Reference value :  1.76428e-05
 Reference value :  1.76628e-05
 Reference value :  1.76828e-05
 Reference value :  1.77028e-05
 Reference value :  1.77228e-05
 Reference value :  1.77428e-05
 Reference value :  1.77628e-05
 Reference value :  1.77828e-05
 Reference value :  1.78028e-05
 Reference value :  1.78228e-05
 Reference value :  1.78428e-05
 Reference value :  1.78628e-05
 Reference value :  1.78828e-05
 Reference value :  1.79028e-05
 Reference value :  1.79228e-05
 Reference value :  1.79428e-05
 Reference value :  1.79628e-05
 Reference value :  1.79828e-05
 Reference value :  1.80028e-05
 Reference value :  1.80228e-05
 Reference value :  1.80428e-05
 Reference value :  1.80628e-05
 Reference value :  1.80828e-05
 Reference value :  1.81028e-05
 Reference value :  1.81228e-05
 Reference value :  1.81428e-05
 Reference value :  1.81628e-05
 Reference value :  1.81828e-05
 Reference value :  1.82028e-05
 Reference value :  1.82228e-05
 Reference value :  1.82428e-05
 Reference value :  1.82628e-05
 Reference value :  1.82828e-05
 Reference value :  1.83028e-05
 Reference value :  1.83228e-05
 Reference value :  1.83428e-05
 Reference value :  1.83628e-05
 Reference value :  1.83828e-05
 Reference value :  1.84028e-05
 Reference value :  1.84228e-05
 Reference value :  1.84428e-05
 Reference value :  1.84628e-05
 Reference value :  1.84828e-05
 Reference value :  1.85028e-05
 Reference value :  1.85228e-05
 Reference value :  1.85428e-05
 Reference value :  1.85628e-05
 Reference value :  1.85828e-05
 Reference value :  1.86028e-05
 Reference value :  1.86228e-05
 Reference value :  1.86428e-05
 Reference value :  1.86628e-05
 Reference value :  1.86828e-05
 Reference value :  1.87028e-05
 Reference value :  1.87228e-05
 Reference value :  1.87428e-05
 Reference value :  1.87628e-05
 Reference value :  1.87828e-05
 Reference value :  1.88028e-05
 Reference value :  1.88228e-05
 Reference value :  1.88428e-05
 Reference value :  1.88628e-05
 Reference value :  1.88728e-05
 Reference value :  1.88928e-05
 Reference value :  1.89128e-05
 Reference value :  1.89328e-05
 Reference value :  1.89528e-05
 Reference value :  1.89728e-05
 Reference value :  1.89928e-05
 Reference value :  1.90128e-05
 Reference value :  1.90228e-05
 Reference value :  1.90428e-05
 Reference value :  1.90628e-05
 Reference value :  1.90828e-05
 Reference value :  1.91028e-05
 Reference value :  1.91228e-05
 Reference value :  1.91428e-05
 Reference value :  1.91628e-05
 Reference value :  1.91828e-05
 Reference value :  1.92028e-05
 Reference value :  1.92228e-05
 Reference value :  1.92428e-05
 Reference value :  1.92628e-05
 Reference value :  1.92828e-05
 Reference value :  1.92928e-05
 Reference value :  1.93128e-05
 Reference value :  1.93228e-05
 Reference value :  1.93428e-05
 Reference value :  1.93628e-05
 Reference value :  1.93828e-05
 Reference value :  1.94028e-05
 Reference value :  1.94228e-05
 Reference value :  1.94428e-05
 Reference value :  1.94628e-05
 Reference value :  1.94828e-05
 Reference value :  1.95028e-05
 Reference value :  1.95228e-05
 Reference value :  1.95428e-05
 Reference value :  1.95628e-05
 Reference value :  1.95828e-05
 Reference value :  1.96128e-05
 Reference value :  1.96328e-05
 Reference value :  1.96528e-05
 Reference value :  1.96728e-05
 Reference value :  1.96928e-05
 Reference value :  1.97128e-05
 Reference value :  1.97328e-05
 Reference value :  1.97528e-05
 Reference value :  1.97728e-05
 Reference value :  1.97928e-05
 Reference value :  1.98128e-05
 Reference value :  1.98328e-05
 Reference value :  1.98528e-05
 Reference value :  1.98728e-05
 Reference value :  1.98928e-05
 Reference value :  1.99128e-05
 Reference value :  1.99428e-05
 Reference value :  1.99628e-05
 Reference value :  1.99828e-05
 Reference value :  2.00000e-05
No. of Data Rows : 2025
 meas tran sr_pos max deriv(v(vout)) failed!

 meas tran sr_neg min deriv(v(vout)) failed!

Note: Simulation executed from .control section 
