
Note: Compatibility modes selected: hs a


Circuit: ** sch_path: /foss/designs/sky130_op_amp/runs/run_2025-10-21_18-52-57/parameters/slew_rate/run_44/transient.sch

option SCALE: Scale is set to 1e-06 for instance and model parameters
option SCALE: Scale is set to 1e-06 for instance and model parameters
option SCALE: Scale is set to 1e-06 for instance and model parameters
option SCALE: Scale is set to 1e-06 for instance and model parameters
Doing analysis at TEMP = 130.000000 and TNOM = 27.000000

Using SPARSE 1.3 as Direct Linear Solver

Initial Transient Solution
--------------------------

Node                                   Voltage
----                                   -------
vdd                                        1.9
ibias                                 0.586696
vout                               1.42997e-05
vss                                          0
vn                                 1.42997e-05
vp                                           0
x1.a_8862_4192.t27                    0.001233
x1.en.t0                                   1.9
x1.vss.t311                        9.29883e-05
x1.vss.t215                        5.47403e-05
x1.vdd.t97                                 1.9
x1.vdd.t96                                 1.9
x1.vdd.t44                                 1.9
x1.vdd.t95                                 1.9
x1.vdd.t93                                 1.9
x1.vdd.t94                                 1.9
x1.vdd.t47                                 1.9
x1.a_3868_4185.t39                 1.22371e-05
x1.ibias.t10                          0.586675
x1.a_3329_8823.t39                 1.32051e-05
x1.vss.t0                          1.41728e-05
x1.a_n1962_4406.t59                1.23446e-05
x1.ibias.t11                          0.586675
x1.vout.t21                        1.42343e-05
x1.vss.t6                          1.22215e-05
x1.a_n1962_4406.t58                1.23445e-05
x1.ibias.t12                          0.586675
x1.vout.t53                        1.42349e-05
x1.vss.t211                        5.35406e-05
x1.vss.t209                        5.37001e-05
x1.vss.t210                        6.85855e-05
x1.vss.t30                         5.01497e-05
x1.a_3329_8823.t38                 1.32051e-05
x1.ibias.t13                          0.586675
x1.a_3868_4185.t38                 1.22371e-05
x1.vss.t1                           1.4011e-05
x1.vss.t208                        1.22133e-05
x1.vss.t207                        1.22127e-05
x1.vss.t64                         1.41003e-05
x1.vdd.t92                                 1.9
x1.vdd.t91                                 1.9
x1.vdd.t71                                 1.9
x1.a_3868_4185.t37                 1.22371e-05
x1.ibias.t14                          0.586675
x1.a_3329_8823.t8                  1.32051e-05
x1.vss.t11                         1.38511e-05
x1.a_n735_8972.t23                     1.53556
x1.vp.t0                                     0
x1.a_3329_8823.t56                 1.32176e-05
x1.vss.t2                          1.36068e-05
x1.vss.t310                        1.21358e-05
x1.en.t1                                   1.9
x1.a_n1962_4406.t123               1.23416e-05
x1.vss.t77                         1.22281e-05
x1.a_3868_4185.t36                 1.22343e-05
x1.ibias.t15                          0.586675
x1.a_3329_8823.t17                 1.32052e-05
x1.vss.t7                          1.45449e-05
x1.a_3329_8823.t66                  1.3218e-05
x1.vn.t0                           1.42997e-05
x1.a_n935_8875.t15                     1.53446
x1.vss.t4                          1.37253e-05
x1.vdd.t19                                 1.9
x1.a_n735_8972.t27                     1.53556
x1.vout.t67                        1.43279e-05
x1.vdd.t15                                 1.9
x1.a_n1962_4406.t122               1.23435e-05
x1.en.t2                                   1.9
x1.vss.t309                        1.21358e-05
x1.vss.t8                          1.22271e-05
x1.a_3329_8823.t65                 1.32176e-05
x1.vn.t1                           1.42997e-05
x1.a_n935_8875.t14                     1.53446
x1.vss.t5                          1.34888e-05
x1.vdd.t36                                 1.9
x1.a_n735_8972.t28                     1.53556
x1.vout.t77                        1.43259e-05
x1.vdd.t5                                  1.9
x1.vss.t206                        1.22127e-05
x1.vss.t205                        1.22127e-05
x1.a_3329_8823.t55                 1.32162e-05
x1.a_n1962_4406.t57                1.23495e-05
x1.ibias.t16                          0.586675
x1.vout.t45                        1.42336e-05
x1.vss.t212                        1.22233e-05
x1.a_n1962_4406.t56                1.23448e-05
x1.ibias.t17                          0.586675
x1.vout.t2                         1.42338e-05
x1.vss.t308                        1.21357e-05
x1.en.t3                                   1.9
x1.a_n1962_4406.t121               1.23436e-05
x1.vss.t19                         1.22242e-05
x1.a_3329_8823.t43                 1.32177e-05
x1.vn.t2                           1.42997e-05
x1.a_n935_8875.t13                     1.53446
x1.vdd.t90                                 1.9
x1.vdd.t89                                 1.9
x1.a_n1962_4406.t79                1.23469e-05
x1.vss.t203                        1.21176e-05
x1.vss.t204                        1.21176e-05
x1.vss.t20                         1.22252e-05
x1.a_n1962_4406.t120               1.23436e-05
x1.en.t4                                   1.9
x1.vss.t307                        1.21375e-05
x1.vout.t38                         1.4234e-05
x1.ibias.t18                          0.586675
x1.a_n1962_4406.t55                1.23446e-05
x1.vss.t12                         1.22261e-05
x1.vss.t202                        1.21176e-05
x1.vss.t201                        1.21176e-05
x1.a_n1962_4406.t78                1.23422e-05
x1.vss.t56                         1.22301e-05
x1.vdd.t88                                 1.9
x1.vdd.t87                                 1.9
x1.a_n935_8875.t12                     1.53446
x1.vn.t3                           1.42997e-05
x1.a_3329_8823.t62                 1.32162e-05
x1.vss.t84                          1.3342e-05
x1.vout.t46                        1.42336e-05
x1.ibias.t19                          0.586675
x1.a_n1962_4406.t54                1.23495e-05
x1.vss.t9                          1.22224e-05
x1.vdd.t86                                 1.9
x1.vdd.t84                                 1.9
x1.vdd.t85                                 1.9
x1.a_3329_8823.t63                 1.32165e-05
x1.vp.t1                                     0
x1.a_n735_8972.t22                     1.53556
x1.vss.t89                         1.39637e-05
x1.vss.t306                        1.21374e-05
x1.en.t5                                   1.9
x1.a_n1962_4406.t119               1.23436e-05
x1.vdd.t17                                 1.9
x1.a_n735_8972.t29                     1.53556
x1.vout.t65                          1.433e-05
x1.vdd.t16                                 1.9
x1.a_n735_8972.t30                     1.53556
x1.vout.t64                        1.43296e-05
x1.vss.t198                        1.21176e-05
x1.vss.t197                        1.21176e-05
x1.a_n1962_4406.t53                1.23473e-05
x1.ibias.t20                          0.586675
x1.vout.t42                        1.42336e-05
x1.vss.t45                         1.22229e-05
x1.vout.t35                        1.42336e-05
x1.ibias.t21                          0.586675
x1.a_n1962_4406.t52                1.23447e-05
x1.vss.t16                         1.22207e-05
x1.vss.t200                        1.20918e-05
x1.vss.t199                        1.20918e-05
x1.a_3868_4185.t55                 1.22331e-05
x1.vss.t27                         1.57245e-05
x1.vss.t196                        1.20918e-05
x1.vss.t195                        1.20918e-05
x1.a_3868_4185.t54                 1.22331e-05
x1.a_n1962_4406.t77                1.23468e-05
x1.vss.t193                        1.21176e-05
x1.vss.t194                        1.21176e-05
x1.vss.t38                         1.22293e-05
x1.a_3329_8823.t42                 1.32178e-05
x1.vn.t4                           1.42997e-05
x1.a_n935_8875.t11                     1.53446
x1.a_n1962_4406.t118               1.23435e-05
x1.en.t6                                   1.9
x1.vss.t305                        1.21356e-05
x1.vss.t15                         1.22203e-05
x1.a_n1962_4406.t117               1.23436e-05
x1.en.t7                                   1.9
x1.vss.t304                        1.21321e-05
x1.vss.t192                         7.0374e-05
x1.vss.t191                        6.30216e-05
x1.vss.t22                         5.73699e-05
x1.a_n735_8972.t21                     1.53556
x1.vp.t2                                     0
x1.a_3329_8823.t73                 1.32174e-05
x1.vss.t313                        1.39968e-05
x1.a_n1962_4406.t51                1.23447e-05
x1.ibias.t22                          0.586675
x1.vout.t9                         1.42344e-05
x1.a_n1962_4406.t116               1.23436e-05
x1.en.t8                                   1.9
x1.vss.t303                        1.21282e-05
x1.a_3329_8823.t35                 1.32056e-05
x1.ibias.t23                          0.586675
x1.a_3868_4185.t35                 1.22361e-05
x1.vss.t14                         1.36896e-05
x1.ibias.t7                           0.586462
x1.ibias.t6                           0.586664
x1.a_8862_4192.t0                   0.00146312
x1.vss.t214                        5.33365e-05
x1.vss.t302                        0.000103782
x1.en.t9                                   1.9
x1.a_8862_4192.t26                  0.00123229
x1.a_n935_8875.t33                     1.53446
x1.a_n935_8875.t32                     1.53446
x1.vdd.t110                                1.9
x1.vdd.t8                                  1.9
x1.a_n1962_4406.t50                1.23447e-05
x1.ibias.t24                          0.586675
x1.vout.t3                         1.42349e-05
x1.vss.t190                        1.21176e-05
x1.vss.t188                        1.21176e-05
x1.vss.t189                        1.21176e-05
x1.vout.t0                         1.42343e-05
x1.ibias.t25                          0.586675
x1.a_n1962_4406.t49                1.23447e-05
x1.vout.t6                         1.42349e-05
x1.ibias.t26                          0.586675
x1.a_n1962_4406.t48                1.23447e-05
x1.a_3868_4185.t53                 1.22359e-05
x1.vss.t186                        1.20918e-05
x1.vss.t187                        1.20918e-05
x1.vss.t51                          1.3521e-05
x1.a_8862_4192.t25                  0.00123221
x1.en.t10                                  1.9
x1.vss.t301                        7.70796e-05
x1.vss.t219                        5.18464e-05
x1.vss.t185                        5.90686e-05
x1.vss.t183                        5.91551e-05
x1.vss.t184                        7.40174e-05
x1.vdd.t7                                  1.9
x1.a_n735_8972.t31                     1.53556
x1.vout.t62                         1.4328e-05
x1.a_n735_8972.t7                      1.53556
x1.x62.x0.t1                           1.53556
x1.x62.x0.t2                           1.53556
x1.a_9909_7861.t0                      1.53556
x1.vss.t218                        5.90513e-05
x1.x62.x0.rbody_3                            0
x1.a_3868_4185.t34                  1.2236e-05
x1.ibias.t27                          0.586675
x1.a_3329_8823.t4                  1.32056e-05
x1.vss.t10                         1.51834e-05
x1.a_8862_4192.t3                   0.00146312
x1.ibias.t4                           0.586663
x1.ibias.t5                           0.586551
x1.vss.t300                         1.2139e-05
x1.en.t11                                  1.9
x1.a_n1962_4406.t115               1.23437e-05
x1.vss.t17                         1.22208e-05
x1.a_n1962_4406.t114               1.23415e-05
x1.en.t12                                  1.9
x1.vss.t299                          1.213e-05
x1.vss.t182                        1.21176e-05
x1.vss.t181                        1.21176e-05
x1.a_n735_8972.t24                     1.53556
x1.a_n935_8875.t34                     1.53446
x1.vdd.t103                                1.9
x1.vdd.t30                                 1.9
x1.vss.t180                        1.22127e-05
x1.vss.t179                        1.22127e-05
x1.a_3329_8823.t54                 1.32161e-05
x1.a_3329_8823.t2                  1.32056e-05
x1.ibias.t28                          0.586675
x1.a_3868_4185.t33                 1.22371e-05
x1.vss.t13                         1.48327e-05
x1.vss.t178                        6.89064e-05
x1.vss.t177                        6.15456e-05
x1.vss.t293                        1.21012e-05
x1.en.t13                                  1.9
x1.a_3868_4185.t79                 1.22337e-05
x1.vss.t18                          1.4343e-05
x1.a_n935_8875.t10                     1.53446
x1.vn.t5                           1.42997e-05
x1.a_3329_8823.t64                 1.32176e-05
x1.vss.t298                          1.213e-05
x1.en.t14                                  1.9
x1.a_n1962_4406.t113               1.23434e-05
x1.vss.t176                        1.21176e-05
x1.vss.t175                        1.21176e-05
x1.a_n1962_4406.t76                1.23469e-05
x1.a_3329_8823.t71                 1.32164e-05
x1.vn.t6                           1.42997e-05
x1.a_n935_8875.t9                      1.53446
x1.vdd.t83                                 1.9
x1.vdd.t82                                 1.9
x1.a_3868_4185.t78                 1.22337e-05
x1.en.t15                                  1.9
x1.vss.t297                        1.21015e-05
x1.a_3868_4185.t77                 1.22337e-05
x1.en.t16                                  1.9
x1.vss.t296                        1.21014e-05
x1.vdd.t33                                 1.9
x1.a_n735_8972.t32                     1.53556
x1.vout.t75                        1.43299e-05
x1.vss.t295                        9.15751e-05
x1.en.t17                                  1.9
x1.a_8862_4192.t24                  0.00123157
x1.a_3329_8823.t28                 1.32052e-05
x1.ibias.t29                          0.586675
x1.a_3868_4185.t32                 1.22361e-05
x1.a_3329_8823.t77                  1.3218e-05
x1.vp.t3                                     0
x1.a_n735_8972.t20                     1.53556
x1.vdd.t105                                1.9
x1.a_n735_8972.t33                     1.53556
x1.vout.t86                        1.43286e-05
x1.a_3868_4185.t31                 1.22344e-05
x1.ibias.t30                          0.586675
x1.a_3329_8823.t11                 1.32051e-05
x1.a_n1962_4406.t112               1.23435e-05
x1.en.t18                                  1.9
x1.vss.t294                        1.21339e-05
x1.a_8862_4192.t23                  0.00123151
x1.en.t19                                  1.9
x1.vss.t292                        7.22529e-05
x1.vss.t174                        5.45779e-05
x1.vss.t172                        5.45989e-05
x1.vss.t173                        6.93425e-05
x1.a_3329_8823.t12                 1.32051e-05
x1.ibias.t31                          0.586675
x1.a_3868_4185.t30                 1.22344e-05
x1.a_3868_4185.t52                 1.22358e-05
x1.vss.t170                        1.20918e-05
x1.vss.t171                        1.20918e-05
x1.vout.t49                        1.42346e-05
x1.ibias.t32                          0.586675
x1.a_n1962_4406.t47                1.23446e-05
x1.vout.t28                        1.42352e-05
x1.ibias.t33                          0.586675
x1.a_n1962_4406.t46                1.23445e-05
x1.a_n1962_4406.t45                1.23473e-05
x1.ibias.t34                          0.586675
x1.vout.t57                        1.42356e-05
x1.a_3868_4185.t76                 1.22327e-05
x1.en.t20                                  1.9
x1.vss.t291                        1.21012e-05
x1.a_3329_8823.t61                 1.32176e-05
x1.vp.t4                                     0
x1.a_n735_8972.t19                     1.53556
x1.vout.t69                          1.433e-05
x1.a_n735_8972.t34                     1.53556
x1.vdd.t23                                 1.9
x1.vdd.t13                                 1.9
x1.vss.t130                        1.21176e-05
x1.vss.t129                        1.21176e-05
x1.a_3868_4185.t75                 1.22337e-05
x1.en.t21                                  1.9
x1.vss.t290                        1.21012e-05
x1.vss.t289                        1.21012e-05
x1.en.t22                                  1.9
x1.a_3868_4185.t74                 1.22337e-05
x1.vout.t54                        1.42339e-05
x1.ibias.t35                          0.586675
x1.a_n1962_4406.t44                1.23473e-05
x1.a_3868_4185.t29                 1.22371e-05
x1.ibias.t36                          0.586675
x1.a_3329_8823.t18                  1.3205e-05
x1.vss.t169                        1.21176e-05
x1.vss.t168                        1.21176e-05
x1.a_n1962_4406.t43                1.23447e-05
x1.ibias.t37                          0.586675
x1.vout.t52                        1.42339e-05
x1.vout.t25                        1.42336e-05
x1.ibias.t38                          0.586675
x1.a_n1962_4406.t42                1.23474e-05
x1.vss.t167                        1.21176e-05
x1.vss.t166                        1.21176e-05
x1.vout.t26                        1.42338e-05
x1.ibias.t39                          0.586675
x1.a_n1962_4406.t41                1.23447e-05
x1.vss.t165                        1.21176e-05
x1.vss.t164                        1.21176e-05
x1.a_n1962_4406.t75                1.23468e-05
x1.vss.t288                        1.21375e-05
x1.en.t23                                  1.9
x1.a_n1962_4406.t111               1.23436e-05
x1.a_n935_8875.t8                      1.53446
x1.vn.t7                           1.42997e-05
x1.a_3329_8823.t46                 1.32179e-05
x1.vss.t3                          1.38433e-05
x1.vdd.t81                                 1.9
x1.vdd.t80                                 1.9
x1.vss.t287                        1.21321e-05
x1.en.t24                                  1.9
x1.a_n1962_4406.t110               1.23415e-05
x1.vss.t286                        1.21282e-05
x1.en.t25                                  1.9
x1.a_n1962_4406.t109               1.23414e-05
x1.vdd.t106                                1.9
x1.a_n935_8875.t35                     1.53446
x1.a_n735_8972.t25                     1.53556
x1.vdd.t11                                 1.9
x1.a_n1962_4406.t40                1.23473e-05
x1.ibias.t40                          0.586675
x1.vout.t58                        1.42338e-05
x1.vss.t163                        1.22134e-05
x1.vss.t161                        1.22127e-05
x1.vss.t162                        1.43272e-05
x1.vdd.t25                                 1.9
x1.a_n735_8972.t35                     1.53556
x1.vout.t71                         1.4327e-05
x1.vss.t160                        1.21176e-05
x1.vss.t158                        1.21176e-05
x1.vss.t159                        1.21176e-05
x1.a_n1962_4406.t108               1.23434e-05
x1.en.t26                                  1.9
x1.vss.t285                        1.21321e-05
x1.a_3329_8823.t27                 1.32055e-05
x1.ibias.t41                          0.586675
x1.a_3868_4185.t28                 1.22344e-05
x1.a_n935_8875.t31                     1.53446
x1.a_n935_8875.t30                     1.53446
x1.vdd.t37                                 1.9
x1.a_n1962_4406.t39                1.23474e-05
x1.ibias.t42                          0.586675
x1.vout.t13                        1.42336e-05
x1.vout.t16                        1.42338e-05
x1.ibias.t43                          0.586675
x1.a_n1962_4406.t38                1.23447e-05
x1.a_n1962_4406.t37                1.23447e-05
x1.ibias.t44                          0.586675
x1.vout.t22                        1.42341e-05
x1.a_n1962_4406.t107               1.23433e-05
x1.en.t27                                  1.9
x1.vss.t284                        1.21283e-05
x1.a_3329_8823.t0                  1.32053e-05
x1.ibias.t45                          0.586675
x1.a_3868_4185.t27                 1.22343e-05
x1.a_n735_8972.t18                     1.53556
x1.vp.t5                                     0
x1.a_3329_8823.t47                 1.32177e-05
x1.vss.t157                        1.22138e-05
x1.vss.t155                        1.22127e-05
x1.a_n735_8972.t4                      1.53556
x1.vss.t156                        1.41583e-05
x1.vout.t73                        1.43299e-05
x1.a_n735_8972.t36                     1.53556
x1.vdd.t27                                 1.9
x1.a_n1962_4406.t36                1.23447e-05
x1.ibias.t46                          0.586675
x1.vout.t39                        1.42338e-05
x1.a_n1962_4406.t106               1.23436e-05
x1.en.t28                                  1.9
x1.vss.t280                        1.21339e-05
x1.vss.t281                        1.21321e-05
x1.en.t29                                  1.9
x1.a_n1962_4406.t105               1.23435e-05
x1.vss.t283                        1.21282e-05
x1.en.t30                                  1.9
x1.a_n1962_4406.t104               1.23435e-05
x1.vss.t282                        0.000102889
x1.en.t31                                  1.9
x1.a_8862_4192.t22                  0.00123183
x1.a_3329_8823.t53                 1.32158e-05
x1.vss.t153                        1.22123e-05
x1.vss.t154                        1.22123e-05
x1.vss.t61                         1.31603e-05
x1.vout.t14                        1.42344e-05
x1.ibias.t47                          0.586675
x1.a_n1962_4406.t35                1.23445e-05
x1.vss.t152                        1.21176e-05
x1.vss.t151                        1.21176e-05
x1.a_n1962_4406.t74                1.23422e-05
x1.vout.t17                        1.42349e-05
x1.ibias.t48                          0.586675
x1.a_n1962_4406.t34                1.23445e-05
x1.vss.t150                        1.21176e-05
x1.vss.t149                        1.21176e-05
x1.vss.t279                        1.21339e-05
x1.en.t32                                  1.9
x1.a_n1962_4406.t103               1.23436e-05
x1.a_n1962_4406.t33                1.23495e-05
x1.ibias.t49                          0.586675
x1.vout.t50                        1.42357e-05
x1.a_3868_4185.t73                 1.22337e-05
x1.en.t33                                  1.9
x1.vss.t278                        1.21015e-05
x1.vss.t274                        1.21015e-05
x1.en.t34                                  1.9
x1.a_3868_4185.t72                 1.22328e-05
x1.vss.t277                        1.21014e-05
x1.en.t35                                  1.9
x1.a_3868_4185.t71                 1.22327e-05
x1.a_n935_8875.t29                     1.53446
x1.a_n935_8875.t28                     1.53446
x1.vdd.t29                                 1.9
x1.vdd.t79                                 1.9
x1.vdd.t78                                 1.9
x1.a_n1962_4406.t32                1.23495e-05
x1.ibias.t50                          0.586675
x1.vout.t29                        1.42357e-05
x1.a_8862_4192.t21                  0.00123175
x1.en.t36                                  1.9
x1.vss.t276                        7.76684e-05
x1.a_3868_4185.t70                 1.22337e-05
x1.en.t37                                  1.9
x1.vss.t275                        1.21014e-05
x1.vss.t148                        1.20918e-05
x1.vss.t147                        1.20918e-05
x1.a_3868_4185.t51                 1.22358e-05
x1.vdd.t22                                 1.9
x1.a_n935_8875.t26                     1.53446
x1.a_n935_8875.t27                     1.53446
x1.vdd.t0                                  1.9
x1.vout.t23                        1.42356e-05
x1.ibias.t51                          0.586675
x1.a_n1962_4406.t31                1.23495e-05
x1.vss.t273                        1.21015e-05
x1.en.t38                                  1.9
x1.a_3868_4185.t69                 1.22337e-05
x1.a_3868_4185.t50                 1.22332e-05
x1.vss.t145                        1.20918e-05
x1.vss.t146                        1.20918e-05
x1.vss.t144                        5.79373e-05
x1.vss.t142                        5.80815e-05
x1.vss.t143                         7.2917e-05
x1.a_3868_4185.t49                 1.22331e-05
x1.vss.t140                        1.20918e-05
x1.vss.t141                        1.20918e-05
x1.vss.t272                        1.21014e-05
x1.en.t39                                  1.9
x1.a_3868_4185.t68                 1.22337e-05
x1.vss.t271                        1.21356e-05
x1.en.t40                                  1.9
x1.a_n1962_4406.t102               1.23435e-05
x1.a_3868_4185.t26                  1.2236e-05
x1.ibias.t52                          0.586675
x1.a_3329_8823.t14                 1.32052e-05
x1.a_3868_4185.t25                  1.2236e-05
x1.ibias.t53                          0.586675
x1.a_3329_8823.t24                 1.32054e-05
x1.a_3329_8823.t67                 1.32174e-05
x1.vn.t8                           1.42997e-05
x1.a_n935_8875.t7                      1.53446
x1.vss.t217                        1.38368e-05
x1.a_3868_4185.t24                 1.22344e-05
x1.ibias.t54                          0.586675
x1.a_3329_8823.t34                 1.32055e-05
x1.vdd.t77                                 1.9
x1.vdd.t76                                 1.9
x1.a_n1962_4406.t73                1.23468e-05
x1.vss.t138                        1.21176e-05
x1.vss.t139                        1.21176e-05
x1.a_n1962_4406.t72                1.23468e-05
x1.vss.t136                        1.21176e-05
x1.vss.t137                        1.21176e-05
x1.ibias.t3                           0.586556
x1.ibias.t2                           0.586667
x1.a_8862_4192.t2                   0.00146313
x1.vss.t216                        5.60912e-05
x1.vss.t270                        7.57918e-05
x1.en.t41                                  1.9
x1.a_8862_4192.t20                  0.00123219
x1.a_3868_4185.t23                 1.22343e-05
x1.ibias.t55                          0.586675
x1.a_3329_8823.t5                  1.32053e-05
x1.a_3329_8823.t9                  1.32054e-05
x1.ibias.t56                          0.586675
x1.a_3868_4185.t22                 1.22343e-05
x1.a_n1962_4406.t101               1.23434e-05
x1.en.t42                                  1.9
x1.vss.t269                         1.2132e-05
x1.a_n1962_4406.t100               1.23434e-05
x1.en.t43                                  1.9
x1.vss.t268                        1.21281e-05
x1.a_3329_8823.t13                 1.32052e-05
x1.ibias.t57                          0.586675
x1.a_3868_4185.t21                 1.22343e-05
x1.vdd.t75                                 1.9
x1.vdd.t73                                 1.9
x1.vdd.t74                                 1.9
x1.vdd.t40                                 1.9
x1.vss.t267                        9.25044e-05
x1.en.t44                                  1.9
x1.a_8862_4192.t19                  0.00123205
x1.a_8862_4192.t18                  0.00123228
x1.en.t45                                  1.9
x1.vss.t266                        0.000103782
x1.vdd.t101                                1.9
x1.a_n735_8972.t37                     1.53556
x1.vout.t83                        1.43292e-05
x1.a_n1962_4406.t30                1.23448e-05
x1.ibias.t58                          0.586675
x1.vout.t55                        1.42337e-05
x1.a_8862_4192.t1                   0.00146313
x1.ibias.t0                           0.586665
x1.ibias.t1                           0.586462
x1.a_3329_8823.t1                  1.32051e-05
x1.ibias.t59                          0.586675
x1.a_3868_4185.t20                 1.22361e-05
x1.vdd.t109                                1.9
x1.a_n935_8875.t36                     1.53446
x1.a_n735_8972.t26                     1.53556
x1.a_8862_4192.t17                  0.00123199
x1.en.t46                                  1.9
x1.vss.t265                        7.30091e-05
x1.vss.t135                        5.55065e-05
x1.vss.t133                        5.54043e-05
x1.vss.t134                        7.00281e-05
x1.vout.t81                        1.43279e-05
x1.a_n735_8972.t38                     1.53556
x1.vdd.t99                                 1.9
x1.vss.t128                        1.20918e-05
x1.vss.t127                        1.20918e-05
x1.a_3868_4185.t48                 1.22331e-05
x1.a_3868_4185.t47                 1.22358e-05
x1.vss.t131                        1.20918e-05
x1.vss.t132                        1.20918e-05
x1.a_n935_8875.t25                     1.53446
x1.a_n935_8875.t24                     1.53446
x1.vdd.t31                                 1.9
x1.a_3868_4185.t19                 1.22361e-05
x1.ibias.t60                          0.586675
x1.a_3329_8823.t25                  1.3205e-05
x1.a_3329_8823.t52                 1.32158e-05
x1.vss.t125                        1.22122e-05
x1.vss.t126                        1.22122e-05
x1.vss.t248                        7.29675e-05
x1.en.t47                                  1.9
x1.a_8862_4192.t16                  0.00123152
x1.a_3329_8823.t6                   1.3205e-05
x1.ibias.t61                          0.586675
x1.a_3868_4185.t18                 1.22371e-05
x1.vdd.t72                                 1.9
x1.vdd.t70                                 1.9
x1.a_3868_4185.t67                 1.22337e-05
x1.en.t48                                  1.9
x1.vss.t264                        1.21012e-05
x1.vout.t63                        1.43296e-05
x1.a_n735_8972.t39                     1.53556
x1.vdd.t14                                 1.9
x1.vout.t68                        1.43267e-05
x1.a_n735_8972.t40                     1.53556
x1.vdd.t20                                 1.9
x1.vdd.t2                                  1.9
x1.a_n1962_4406.t99                1.23434e-05
x1.en.t49                                  1.9
x1.vss.t263                        1.21301e-05
x1.a_8862_4192.t15                  0.00123158
x1.en.t50                                  1.9
x1.vss.t262                        9.15751e-05
x1.vss.t124                        1.22127e-05
x1.vss.t123                        1.22127e-05
x1.a_3329_8823.t51                 1.32162e-05
x1.a_n1962_4406.t98                1.23434e-05
x1.en.t51                                  1.9
x1.vss.t261                        1.21261e-05
x1.vdd.t69                                 1.9
x1.vdd.t67                                 1.9
x1.vdd.t68                                 1.9
x1.a_3329_8823.t58                 1.32166e-05
x1.vp.t6                                     0
x1.a_n735_8972.t17                     1.53556
x1.vss.t122                        1.21176e-05
x1.vss.t121                        1.21176e-05
x1.a_n1962_4406.t71                1.23468e-05
x1.a_3329_8823.t79                 1.32165e-05
x1.vn.t9                           1.42997e-05
x1.a_n935_8875.t6                      1.53446
x1.vout.t40                        1.42342e-05
x1.ibias.t62                          0.586675
x1.a_n1962_4406.t29                1.23473e-05
x1.a_n935_8875.t5                      1.53446
x1.vn.t10                          1.42997e-05
x1.a_3329_8823.t70                 1.32174e-05
x1.vdd.t66                                 1.9
x1.vdd.t64                                 1.9
x1.vdd.t65                                 1.9
x1.a_n735_8972.t5                      1.53556
x1.a_n935_8875.t37                     1.53446
x1.vdd.t28                                 1.9
x1.vout.t66                        1.43284e-05
x1.a_n735_8972.t41                     1.53556
x1.vdd.t18                                 1.9
x1.vss.t120                        1.21176e-05
x1.vss.t119                        1.21176e-05
x1.a_n1962_4406.t97                1.23416e-05
x1.en.t52                                  1.9
x1.vss.t260                        1.21373e-05
x1.a_n1962_4406.t28                1.23446e-05
x1.ibias.t63                          0.586675
x1.vout.t15                        1.42342e-05
x1.vss.t118                        1.21176e-05
x1.vss.t117                        1.21176e-05
x1.vdd.t4                                  1.9
x1.a_n935_8875.t38                     1.53446
x1.a_n735_8972.t0                      1.53556
x1.a_n735_8972.t16                     1.53556
x1.vp.t7                                     0
x1.a_3329_8823.t74                  1.3218e-05
x1.a_3329_8823.t75                 1.32174e-05
x1.vp.t8                                     0
x1.a_n735_8972.t15                     1.53556
x1.a_n1962_4406.t96                1.23437e-05
x1.en.t53                                  1.9
x1.vss.t259                        1.21391e-05
x1.vdd.t63                                 1.9
x1.vdd.t61                                 1.9
x1.vdd.t62                                 1.9
x1.vss.t116                        1.21176e-05
x1.vss.t115                        1.21176e-05
x1.a_n1962_4406.t70                1.23469e-05
x1.a_n1962_4406.t27                1.23448e-05
x1.ibias.t64                          0.586675
x1.vout.t18                        1.42337e-05
x1.vss.t258                        1.21373e-05
x1.en.t54                                  1.9
x1.a_n1962_4406.t95                1.23436e-05
x1.vout.t10                        1.42341e-05
x1.ibias.t65                          0.586675
x1.a_n1962_4406.t26                1.23447e-05
x1.a_n735_8972.t14                     1.53556
x1.vp.t9                                     0
x1.a_3329_8823.t78                 1.32162e-05
x1.a_3329_8823.t59                 1.32179e-05
x1.vp.t10                                    0
x1.a_n735_8972.t13                     1.53556
x1.a_n735_8972.t12                     1.53556
x1.vp.t11                                    0
x1.a_3329_8823.t69                 1.32161e-05
x1.a_n1962_4406.t69                1.23422e-05
x1.vss.t113                        1.21176e-05
x1.vss.t114                        1.21176e-05
x1.vss.t257                        1.21339e-05
x1.en.t55                                  1.9
x1.a_n1962_4406.t94                1.23434e-05
x1.a_n1962_4406.t68                1.23468e-05
x1.vss.t111                        1.21176e-05
x1.vss.t112                        1.21176e-05
x1.vout.t51                        1.42337e-05
x1.ibias.t66                          0.586675
x1.a_n1962_4406.t25                1.23448e-05
x1.vout.t30                        1.42357e-05
x1.ibias.t67                          0.586675
x1.a_n1962_4406.t24                1.23495e-05
x1.vout.t24                        1.42357e-05
x1.ibias.t68                          0.586675
x1.a_n1962_4406.t23                1.23473e-05
x1.vss.t256                        0.000104261
x1.en.t56                                  1.9
x1.a_8862_4192.t14                  0.00123321
x1.a_8862_4192.t13                  0.00123312
x1.en.t57                                  1.9
x1.vss.t255                        7.65759e-05
x1.vdd.t21                                 1.9
x1.a_n935_8875.t22                     1.53446
x1.a_n935_8875.t23                     1.53446
x1.a_3329_8823.t50                 1.32159e-05
x1.vss.t109                        1.22123e-05
x1.vss.t110                        1.22123e-05
x1.vout.t56                        1.42336e-05
x1.ibias.t69                          0.586675
x1.a_n1962_4406.t22                1.23494e-05
x1.a_n1962_4406.t21                1.23473e-05
x1.ibias.t70                          0.586675
x1.vout.t20                        1.42342e-05
x1.a_3329_8823.t16                 1.32056e-05
x1.ibias.t71                          0.586675
x1.a_3868_4185.t17                 1.22371e-05
x1.vss.t108                        1.20918e-05
x1.vss.t107                        1.20918e-05
x1.a_3868_4185.t46                 1.22358e-05
x1.vout.t79                        1.43286e-05
x1.a_n735_8972.t42                     1.53556
x1.vdd.t38                                 1.9
x1.vout.t34                        1.42338e-05
x1.ibias.t72                          0.586675
x1.a_n1962_4406.t20                1.23448e-05
x1.a_n1962_4406.t19                1.23473e-05
x1.ibias.t73                          0.586675
x1.vout.t11                        1.42348e-05
x1.vss.t106                        1.20918e-05
x1.vss.t105                        1.20918e-05
x1.a_3868_4185.t45                 1.22358e-05
x1.vss.t104                        1.22122e-05
x1.vss.t101                        1.22122e-05
x1.vss.t103                        1.22134e-05
x1.vss.t102                        1.30051e-05
x1.a_n1962_4406.t18                1.23446e-05
x1.ibias.t74                          0.586675
x1.vout.t31                        1.42341e-05
x1.vss.t100                        7.06656e-05
x1.vss.t99                         6.33208e-05
x1.vss.t254                        7.59902e-05
x1.en.t58                                  1.9
x1.a_8862_4192.t12                  0.00123172
x1.vout.t8                         1.42342e-05
x1.ibias.t75                          0.586675
x1.a_n1962_4406.t17                1.23446e-05
x1.a_n1962_4406.t16                1.23447e-05
x1.ibias.t76                          0.586675
x1.vout.t32                        1.42346e-05
x1.a_n1962_4406.t15                1.23448e-05
x1.ibias.t77                          0.586675
x1.vout.t4                         1.42353e-05
x1.a_3868_4185.t16                 1.22371e-05
x1.ibias.t78                          0.586675
x1.a_3329_8823.t21                 1.32056e-05
x1.vss.t98                         6.23001e-05
x1.vss.t97                         6.22988e-05
x1.ibias.t9                           0.586578
x1.a_n1962_4406.t93                1.23435e-05
x1.en.t59                                  1.9
x1.vss.t253                        1.21302e-05
x1.vout.t19                        1.42348e-05
x1.ibias.t79                          0.586675
x1.a_n1962_4406.t14                1.23446e-05
x1.a_n1962_4406.t92                1.23436e-05
x1.en.t60                                  1.9
x1.vss.t252                        1.21261e-05
x1.a_3868_4185.t15                 1.22344e-05
x1.ibias.t80                          0.586675
x1.a_3329_8823.t36                 1.32055e-05
x1.vss.t251                        9.29883e-05
x1.en.t61                                  1.9
x1.a_8862_4192.t11                  0.00123299
x1.vdd.t60                                 1.9
x1.vdd.t58                                 1.9
x1.vdd.t59                                 1.9
x1.a_n735_8972.t11                     1.53556
x1.vp.t12                                    0
x1.a_3329_8823.t40                 1.32173e-05
x1.vss.t250                        1.21301e-05
x1.en.t62                                  1.9
x1.a_n1962_4406.t91                1.23436e-05
x1.vss.t96                         1.21176e-05
x1.vss.t95                         1.21176e-05
x1.a_8862_4192.t10                  0.00123181
x1.en.t63                                  1.9
x1.vss.t249                        0.000102889
x1.a_3868_4185.t14                 1.22343e-05
x1.ibias.t81                          0.586675
x1.a_3329_8823.t32                 1.32053e-05
x1.vss.t247                        1.21261e-05
x1.en.t64                                  1.9
x1.a_n1962_4406.t90                1.23436e-05
x1.a_3329_8823.t23                 1.32056e-05
x1.ibias.t82                          0.586675
x1.a_3868_4185.t13                 1.22371e-05
x1.a_8862_4192.t9                   0.00123293
x1.en.t65                                  1.9
x1.vss.t246                        7.36954e-05
x1.vss.t245                        1.21012e-05
x1.en.t66                                  1.9
x1.a_3868_4185.t66                 1.22327e-05
x1.a_n735_8972.t1                      1.53556
x1.a_n935_8875.t39                     1.53446
x1.vdd.t9                                  1.9
x1.vdd.t35                                 1.9
x1.a_n735_8972.t43                     1.53556
x1.vout.t76                        1.43288e-05
x1.a_n1962_4406.t13                1.23447e-05
x1.ibias.t83                          0.586675
x1.vout.t43                        1.42339e-05
x1.a_3329_8823.t45                 1.32173e-05
x1.vn.t11                          1.42997e-05
x1.a_n935_8875.t4                      1.53446
x1.vout.t88                        1.43274e-05
x1.a_n735_8972.t44                     1.53556
x1.vdd.t108                                1.9
x1.vss.t244                         1.2132e-05
x1.en.t67                                  1.9
x1.a_n1962_4406.t89                1.23434e-05
x1.a_3868_4185.t12                 1.22371e-05
x1.ibias.t84                          0.586675
x1.a_3329_8823.t10                 1.32056e-05
x1.vss.t94                         1.20918e-05
x1.vss.t93                         1.20918e-05
x1.a_3868_4185.t44                 1.22358e-05
x1.a_3868_4185.t43                 1.22331e-05
x1.vss.t91                         1.20918e-05
x1.vss.t92                         1.20918e-05
x1.a_3329_8823.t7                  1.32052e-05
x1.ibias.t85                          0.586675
x1.a_3868_4185.t11                 1.22343e-05
x1.vdd.t10                                 1.9
x1.a_n935_8875.t40                     1.53446
x1.a_n735_8972.t2                      1.53556
x1.vss.t90                         1.22137e-05
x1.vss.t88                         1.22127e-05
x1.a_n935_8875.t17                     1.53446
x1.a_n935_8875.t3                      1.53446
x1.vn.t12                          1.42997e-05
x1.a_3329_8823.t57                 1.32161e-05
x1.vdd.t57                                 1.9
x1.vdd.t55                                 1.9
x1.vdd.t56                                 1.9
x1.vss.t243                        1.21281e-05
x1.en.t68                                  1.9
x1.a_n1962_4406.t88                1.23434e-05
x1.a_3868_4185.t10                 1.22361e-05
x1.ibias.t86                          0.586675
x1.a_3329_8823.t3                  1.32051e-05
x1.vss.t87                         6.78391e-05
x1.vss.t86                         6.04805e-05
x1.vss.t242                        7.35481e-05
x1.en.t69                                  1.9
x1.a_8862_4192.t8                     0.001232
x1.a_3329_8823.t29                 1.32051e-05
x1.ibias.t87                          0.586675
x1.a_3868_4185.t9                  1.22344e-05
x1.vout.t74                        1.43288e-05
x1.a_n735_8972.t45                     1.53556
x1.vdd.t32                                 1.9
x1.a_3868_4185.t65                 1.22337e-05
x1.en.t70                                  1.9
x1.vss.t241                        1.21013e-05
x1.vdd.t102                                1.9
x1.a_n735_8972.t46                     1.53556
x1.vout.t84                        1.43267e-05
x1.a_8862_4192.t7                   0.00123206
x1.en.t71                                  1.9
x1.vss.t240                        9.25044e-05
x1.vss.t239                        1.21013e-05
x1.en.t72                                  1.9
x1.a_3868_4185.t64                 1.22337e-05
x1.vdd.t12                                 1.9
x1.a_n935_8875.t20                     1.53446
x1.a_n935_8875.t21                     1.53446
x1.a_n935_8875.t2                      1.53446
x1.vn.t13                          1.42997e-05
x1.a_3329_8823.t68                  1.3218e-05
x1.vdd.t54                                 1.9
x1.vdd.t53                                 1.9
x1.a_n935_8875.t16                     1.53446
x1.vss.t83                         1.22124e-05
x1.vss.t85                          1.2214e-05
x1.vss.t82                         1.21176e-05
x1.vss.t81                         1.21176e-05
x1.vout.t85                         1.4327e-05
x1.a_n735_8972.t47                     1.53556
x1.vdd.t104                                1.9
x1.vss.t80                         1.21176e-05
x1.vss.t79                         1.21176e-05
x1.a_n1962_4406.t67                1.23423e-05
x1.a_3868_4185.t8                  1.22343e-05
x1.ibias.t88                          0.586675
x1.a_3329_8823.t26                 1.32052e-05
x1.vss.t78                         1.21176e-05
x1.vss.t76                         1.21176e-05
x1.vdd.t107                                1.9
x1.a_n735_8972.t48                     1.53556
x1.vout.t87                        1.43284e-05
x1.a_n1962_4406.t66                1.23469e-05
x1.vss.t74                         1.21176e-05
x1.vss.t75                         1.21176e-05
x1.vss.t73                         1.22124e-05
x1.vss.t71                         1.22124e-05
x1.vss.t72                         1.22137e-05
x1.vdd.t24                                 1.9
x1.a_n735_8972.t49                     1.53556
x1.vout.t70                        1.43287e-05
x1.vss.t238                        1.21391e-05
x1.en.t73                                  1.9
x1.a_n1962_4406.t87                1.23436e-05
x1.vss.t70                         1.21176e-05
x1.vss.t68                         1.21176e-05
x1.vss.t69                         1.21176e-05
x1.vout.t72                        1.43259e-05
x1.a_n735_8972.t50                     1.53556
x1.vdd.t26                                 1.9
x1.vout.t41                        1.42337e-05
x1.ibias.t89                          0.586675
x1.a_n1962_4406.t12                1.23473e-05
x1.a_n1962_4406.t65                1.23468e-05
x1.vss.t66                         1.21176e-05
x1.vss.t67                         1.21176e-05
x1.a_n1962_4406.t86                1.23436e-05
x1.en.t74                                  1.9
x1.vss.t237                        1.21357e-05
x1.vss.t65                         1.22127e-05
x1.vss.t63                         1.22127e-05
x1.a_3329_8823.t49                 1.32162e-05
x1.a_3329_8823.t48                 1.32159e-05
x1.vss.t60                         1.22123e-05
x1.vss.t62                         1.22123e-05
x1.a_n1962_4406.t11                1.23447e-05
x1.ibias.t90                          0.586675
x1.vout.t47                         1.4234e-05
x1.vss.t59                         1.21176e-05
x1.vss.t58                         1.21176e-05
x1.a_n1962_4406.t64                1.23468e-05
x1.vdd.t1                                  1.9
x1.a_n935_8875.t18                     1.53446
x1.a_n935_8875.t19                     1.53446
x1.a_n735_8972.t10                     1.53556
x1.vp.t13                                    0
x1.a_3329_8823.t41                 1.32178e-05
x1.a_n935_8875.t1                      1.53446
x1.vn.t14                          1.42997e-05
x1.a_3329_8823.t72                  1.3217e-05
x1.vss.t312                        1.36749e-05
x1.vdd.t52                                 1.9
x1.vdd.t50                                 1.9
x1.vdd.t51                                 1.9
x1.vout.t44                        1.42339e-05
x1.ibias.t91                          0.586675
x1.a_n1962_4406.t10                1.23448e-05
x1.vss.t57                         1.21176e-05
x1.vss.t55                         1.21176e-05
x1.a_n1962_4406.t63                1.23468e-05
x1.a_3329_8823.t30                 1.32055e-05
x1.ibias.t92                          0.586675
x1.a_3868_4185.t7                  1.22361e-05
x1.vdd.t49                                 1.9
x1.vdd.t46                                 1.9
x1.vdd.t48                                 1.9
x1.vout.t82                        1.43287e-05
x1.a_n735_8972.t51                     1.53556
x1.vdd.t100                                1.9
x1.vout.t36                        1.42347e-05
x1.ibias.t93                          0.586675
x1.a_n1962_4406.t9                 1.23473e-05
x1.vout.t37                        1.42354e-05
x1.ibias.t94                          0.586675
x1.a_n1962_4406.t8                 1.23473e-05
x1.a_3329_8823.t22                 1.32053e-05
x1.ibias.t95                          0.586675
x1.a_3868_4185.t6                  1.22361e-05
x1.a_3329_8823.t60                  1.3217e-05
x1.vp.t14                                    0
x1.a_n735_8972.t9                      1.53556
x1.vss.t213                        1.35051e-05
x1.a_n1962_4406.t85                1.23416e-05
x1.en.t75                                  1.9
x1.vss.t236                        1.21337e-05
x1.a_9909_7861.t1                      1.53556
x1.vout.t78                         1.4269e-05
x1.a_3868_4185.t42                 1.22359e-05
x1.vss.t53                         1.20918e-05
x1.vss.t54                         1.20918e-05
x1.vout.t80                        1.43292e-05
x1.a_n735_8972.t52                     1.53556
x1.vdd.t98                                 1.9
x1.a_n1962_4406.t7                 1.23445e-05
x1.ibias.t96                          0.586675
x1.vout.t12                        1.42347e-05
x1.a_n1962_4406.t6                 1.23445e-05
x1.ibias.t97                          0.586675
x1.vout.t5                         1.42354e-05
x1.a_3868_4185.t63                 1.22327e-05
x1.en.t76                                  1.9
x1.vss.t235                        1.21015e-05
x1.vss.t234                        1.21015e-05
x1.en.t77                                  1.9
x1.a_3868_4185.t62                 1.22337e-05
x1.vss.t233                        1.21014e-05
x1.en.t78                                  1.9
x1.a_3868_4185.t61                 1.22337e-05
x1.a_3868_4185.t41                 1.22358e-05
x1.vss.t50                         1.20918e-05
x1.vss.t52                         1.20918e-05
x1.a_n735_8972.t6                      1.53556
x1.a_n935_8875.t41                     1.53446
x1.vdd.t34                                 1.9
x1.a_n735_8972.t3                      1.53556
x1.vss.t47                         1.22121e-05
x1.vss.t49                         1.22137e-05
x1.vss.t48                         1.33035e-05
x1.a_n1962_4406.t84                1.23436e-05
x1.en.t79                                  1.9
x1.vss.t223                         1.2139e-05
x1.vss.t232                        1.21337e-05
x1.en.t80                                  1.9
x1.a_n1962_4406.t83                1.23435e-05
x1.vout.t1                         1.42346e-05
x1.ibias.t98                          0.586675
x1.a_n1962_4406.t5                 1.23447e-05
x1.vss.t46                         1.21176e-05
x1.vss.t44                         1.21176e-05
x1.vss.t43                          7.0863e-05
x1.vss.t42                         6.35077e-05
x1.a_3868_4185.t60                 1.22327e-05
x1.en.t81                                  1.9
x1.vss.t231                        1.21014e-05
x1.a_3329_8823.t76                 1.32176e-05
x1.vp.t15                                    0
x1.a_n735_8972.t8                      1.53556
x1.a_n1962_4406.t62                1.23422e-05
x1.vss.t40                         1.21176e-05
x1.vss.t41                         1.21176e-05
x1.vss.t228                        1.21302e-05
x1.en.t82                                  1.9
x1.a_n1962_4406.t82                1.23434e-05
x1.vout.t7                         1.42353e-05
x1.ibias.t99                          0.586675
x1.a_n1962_4406.t4                 1.23447e-05
x1.a_n1962_4406.t61                1.23421e-05
x1.vss.t37                         1.21176e-05
x1.vss.t39                         1.21176e-05
x1.vss.t230                        1.21261e-05
x1.en.t83                                  1.9
x1.a_n1962_4406.t81                1.23433e-05
x1.vss.t229                        1.21015e-05
x1.en.t84                                  1.9
x1.a_3868_4185.t59                 1.22337e-05
x1.vss.t227                        7.55165e-05
x1.en.t85                                  1.9
x1.a_8862_4192.t6                   0.00123311
x1.vss.t226                        1.21014e-05
x1.en.t86                                  1.9
x1.a_3868_4185.t58                 1.22337e-05
x1.vss.t36                         1.21176e-05
x1.vss.t35                         1.21176e-05
x1.a_3868_4185.t5                  1.22343e-05
x1.ibias.t100                         0.586675
x1.a_3329_8823.t15                 1.32054e-05
x1.a_3868_4185.t4                  1.22343e-05
x1.ibias.t101                         0.586675
x1.a_3329_8823.t37                 1.32052e-05
x1.a_n1962_4406.t3                 1.23494e-05
x1.ibias.t102                         0.586675
x1.vout.t48                        1.42336e-05
x1.a_8862_4192.t5                    0.0012332
x1.en.t87                                  1.9
x1.vss.t225                        0.000104261
x1.vout.t60                         1.4328e-05
x1.a_n735_8972.t53                     1.53556
x1.vdd.t3                                  1.9
x1.vdd.t6                                  1.9
x1.a_n735_8972.t54                     1.53556
x1.vout.t61                        1.43274e-05
x1.a_n1962_4406.t80                1.23436e-05
x1.en.t88                                  1.9
x1.vss.t224                        1.21374e-05
x1.a_3329_8823.t33                 1.32054e-05
x1.ibias.t103                         0.586675
x1.a_3868_4185.t3                  1.22343e-05
x1.ibias.t8                           0.586572
x1.vss.t33                         5.67421e-05
x1.vss.t34                         5.67434e-05
x1.vss.t32                         5.86489e-05
x1.vss.t29                         5.87003e-05
x1.vss.t31                         7.34252e-05
x1.vout.t33                        1.42341e-05
x1.ibias.t104                         0.586675
x1.a_n1962_4406.t2                 1.23446e-05
x1.a_3329_8823.t20                 1.32052e-05
x1.ibias.t105                         0.586675
x1.a_3868_4185.t2                  1.22343e-05
x1.vss.t28                         1.20918e-05
x1.vss.t26                         1.20918e-05
x1.a_3868_4185.t40                 1.22358e-05
x1.vdd.t45                                 1.9
x1.vdd.t43                                 1.9
x1.vdd.t42                                 1.9
x1.vdd.t39                                 1.9
x1.vdd.t41                                 1.9
x1.a_3868_4185.t1                  1.22371e-05
x1.ibias.t106                         0.586675
x1.a_3329_8823.t31                 1.32056e-05
x1.a_3868_4185.t57                 1.22337e-05
x1.en.t89                                  1.9
x1.vss.t222                        1.21015e-05
x1.a_3329_8823.t19                  1.3205e-05
x1.ibias.t107                         0.586675
x1.a_3868_4185.t0                  1.22371e-05
x1.a_3868_4185.t56                 1.22337e-05
x1.en.t90                                  1.9
x1.vss.t221                        1.21014e-05
x1.a_n1962_4406.t1                 1.23446e-05
x1.ibias.t108                         0.586675
x1.vout.t27                        1.42346e-05
x1.vss.t25                         1.21176e-05
x1.vss.t24                         1.21176e-05
x1.a_n1962_4406.t60                1.23468e-05
x1.vss.t23                         6.84177e-05
x1.vss.t21                         6.10598e-05
x1.vss.t220                        7.40276e-05
x1.en.t91                                  1.9
x1.a_8862_4192.t4                   0.00123294
x1.a_n935_8875.t0                      1.53446
x1.vn.t15                          1.42997e-05
x1.a_3329_8823.t44                 1.32176e-05
x1.a_n1962_4406.t0                 1.23473e-05
x1.ibias.t109                         0.586675
x1.vout.t59                        1.42352e-05
x1.en.n0                                   1.9
x1.en.n3                                   1.9
x1.en.n7                                   1.9
x1.en.n11                                  1.9
x1.en.n15                                  1.9
x1.en.n38                                  1.9
x1.en.n41                                  1.9
x1.en.n44                                  1.9
x1.en.n50                                  1.9
x1.en.n56                                  1.9
x1.en.n62                                  1.9
x1.en.n68                                  1.9
x1.en.n74                                  1.9
x1.en.n80                                  1.9
x1.en.n19                                  1.9
x1.en.n22                                  1.9
x1.en.n26                                  1.9
x1.en.n30                                  1.9
x1.en.n34                                  1.9
x1.en.n87                                  1.9
x1.en.n89                                  1.9
x1.en.n88                                  1.9
x1.en.n2                                   1.9
x1.en.n1                                   1.9
x1.en.n5                                   1.9
x1.en.n4                                   1.9
x1.en.n9                                   1.9
x1.en.n8                                   1.9
x1.en.n13                                  1.9
x1.en.n12                                  1.9
x1.en.n17                                  1.9
x1.en.n16                                  1.9
x1.en.n39                                  1.9
x1.en.n40                                  1.9
x1.en.n42                                  1.9
x1.en.n43                                  1.9
x1.en.n45                                  1.9
x1.en.n46                                  1.9
x1.en.n47                                  1.9
x1.en.n48                                  1.9
x1.en.n51                                  1.9
x1.en.n52                                  1.9
x1.en.n53                                  1.9
x1.en.n54                                  1.9
x1.en.n57                                  1.9
x1.en.n58                                  1.9
x1.en.n59                                  1.9
x1.en.n60                                  1.9
x1.en.n63                                  1.9
x1.en.n64                                  1.9
x1.en.n65                                  1.9
x1.en.n66                                  1.9
x1.en.n69                                  1.9
x1.en.n70                                  1.9
x1.en.n71                                  1.9
x1.en.n72                                  1.9
x1.en.n75                                  1.9
x1.en.n76                                  1.9
x1.en.n77                                  1.9
x1.en.n78                                  1.9
x1.en.n81                                  1.9
x1.en.n82                                  1.9
x1.en.n20                                  1.9
x1.en.n21                                  1.9
x1.en.n23                                  1.9
x1.en.n24                                  1.9
x1.en.n27                                  1.9
x1.en.n28                                  1.9
x1.en.n31                                  1.9
x1.en.n32                                  1.9
x1.en.n35                                  1.9
x1.en.n36                                  1.9
x1.en.n84                                  1.9
x1.en.n83                                  1.9
x1.en.n90                                  1.9
x1.en.n49                                  1.9
x1.en.n25                                  1.9
x1.en.n29                                  1.9
x1.en.n37                                  1.9
x1.en.n6                                   1.9
x1.en.n61                                  1.9
x1.en.n73                                  1.9
x1.en.n10                                  1.9
x1.en.n14                                  1.9
x1.en.n18                                  1.9
x1.en.n33                                  1.9
x1.en.n55                                  1.9
x1.en.n67                                  1.9
x1.en.n79                                  1.9
x1.en.n86                                  1.9
x1.en.n85                                  1.9
x1.vss.n1977                       1.42991e-05
x1.vss.n1888                       5.86339e-05
x1.vss.n2092                       1.29144e-05
x1.vss.n1496                       1.22306e-05
x1.vss.n2383                        5.8429e-05
x1.vss.n123                         5.8816e-05
x1.vss.n1376                       1.22294e-05
x1.vss.n719                          1.223e-05
x1.vss.n1211                       1.22053e-05
x1.vss.n825                        1.21975e-05
x1.vss.n2192                       1.43105e-05
x1.vss.n243                        1.43913e-05
x1.vss.n2109                       1.27571e-05
x1.vss.n668                        1.25911e-05
x1.vss.n2129                       1.35144e-05
x1.vss.n317                        1.34347e-05
x1.vss.n661                        1.34318e-05
x1.vss.n314                        1.35099e-05
x1.vss.n2337                       4.98565e-05
x1.vss.n165                        4.89536e-05
x1.vss.n1494                         1.223e-05
x1.vss.n722                        1.22294e-05
x1.vss.n1905                        1.4218e-05
x1.vss.n1529                       1.41278e-05
x1.vss.n187                        4.90036e-05
x1.vss.n167                        4.99072e-05
x1.vss.n2224                       1.59981e-05
x1.vss.n213                         1.6347e-05
x1.vss.n590                        1.48714e-05
x1.vss.n211                        1.49698e-05
x1.vss.n1207                       1.22365e-05
x1.vss.n826                        1.22426e-05
x1.vss.n2090                       1.30099e-05
x1.vss.n1499                       1.31129e-05
x1.vss.n1886                       5.87061e-05
x1.vss.n1534                       5.87469e-05
x1.vss.n1879                       5.87061e-05
x1.vss.n1878                       5.87469e-05
x1.vss.n1639                       5.78645e-05
x1.vss.n127                        5.74394e-05
x1.vss.n524                        1.66008e-05
x1.vss.n523                         1.6591e-05
x1.vss.n568                        1.61739e-05
x1.vss.n567                        1.62905e-05
x1.vss.n1663                       5.83428e-05
x1.vss.n1662                       5.83142e-05
x1.vss.n1707                       5.86587e-05
x1.vss.n1706                       5.85993e-05
x1.vss.n2335                       4.81061e-05
x1.vss.n2226                       1.66637e-05
x1.vss.n164                        4.96256e-05
x1.vss.n2333                       4.87989e-05
x1.vss.n2332                       4.94208e-05
x1.vss.n2331                       4.92434e-05
x1.vss.n2227                       4.86921e-05
x1.vss.n2330                         4.909e-05
x1.vss.n2329                       4.86087e-05
x1.vss.n2328                       4.89577e-05
x1.vss.n2327                       4.85397e-05
x1.vss.n2326                       4.84812e-05
x1.vss.n2325                       4.88437e-05
x1.vss.n2324                       4.87455e-05
x1.vss.n2323                       4.84311e-05
x1.vss.n2322                       4.83881e-05
x1.vss.n2321                       4.86612e-05
x1.vss.n2320                       4.85887e-05
x1.vss.n2319                       4.83513e-05
x1.vss.n2318                       4.83198e-05
x1.vss.n2317                       4.85267e-05
x1.vss.n2316                       4.84737e-05
x1.vss.n2315                       4.82929e-05
x1.vss.n2314                       4.82699e-05
x1.vss.n2313                       4.84286e-05
x1.vss.n2312                       4.83904e-05
x1.vss.n2311                       4.82506e-05
x1.vss.n2310                       4.82343e-05
x1.vss.n2309                       4.83584e-05
x1.vss.n2308                       4.83318e-05
x1.vss.n2307                       4.82208e-05
x1.vss.n2306                       4.82097e-05
x1.vss.n2305                       4.83101e-05
x1.vss.n2304                       4.82928e-05
x1.vss.n2303                       4.82009e-05
x1.vss.n2302                       4.81942e-05
x1.vss.n2301                       4.82795e-05
x1.vss.n2300                       4.82699e-05
x1.vss.n2299                       4.81893e-05
x1.vss.n2298                       4.81862e-05
x1.vss.n2297                       4.82638e-05
x1.vss.n2296                       4.82612e-05
x1.vss.n2295                       4.81849e-05
x1.vss.n2294                       4.81852e-05
x1.vss.n2293                       4.82619e-05
x1.vss.n2292                       4.82659e-05
x1.vss.n2291                       4.81873e-05
x1.vss.n2290                       4.81911e-05
x1.vss.n2289                       4.82734e-05
x1.vss.n2288                       4.82844e-05
x1.vss.n2287                       4.81967e-05
x1.vss.n2286                       4.82043e-05
x1.vss.n2285                       4.82994e-05
x1.vss.n2284                       4.83184e-05
x1.vss.n2283                        4.8214e-05
x1.vss.n2282                        4.8226e-05
x1.vss.n2281                       4.83421e-05
x1.vss.n2280                       4.83708e-05
x1.vss.n2279                       4.82406e-05
x1.vss.n2278                       4.82581e-05
x1.vss.n2277                       4.84052e-05
x1.vss.n2276                       4.84461e-05
x1.vss.n2275                       4.82788e-05
x1.vss.n2274                       4.83033e-05
x1.vss.n2273                       4.84943e-05
x1.vss.n2272                       4.85508e-05
x1.vss.n2271                       4.83321e-05
x1.vss.n2270                       4.83657e-05
x1.vss.n2269                       4.86169e-05
x1.vss.n2268                        4.8694e-05
x1.vss.n2267                       4.84049e-05
x1.vss.n2266                       4.84505e-05
x1.vss.n2265                       4.87838e-05
x1.vss.n2264                       4.88882e-05
x1.vss.n2263                       4.85038e-05
x1.vss.n2262                       4.85659e-05
x1.vss.n2261                       4.90093e-05
x1.vss.n2260                       4.91499e-05
x1.vss.n2259                       4.86392e-05
x1.vss.n2258                       4.87277e-05
x1.vss.n2257                       4.93128e-05
x1.vss.n2256                       4.95013e-05
x1.vss.n2255                       4.88407e-05
x1.vss.n2254                       4.97188e-05
x1.vss.n2253                       5.05052e-05
x1.vss.n2336                       4.91874e-05
x1.vss.n2252                       5.07801e-05
x1.vss.n2251                       5.02751e-05
x1.vss.n166                        4.97393e-05
x1.vss.n2250                       5.10771e-05
x1.vss.n162                        5.06637e-05
x1.vss.n2342                       5.02467e-05
x1.vss.n2249                       5.13922e-05
x1.vss.n161                        5.10547e-05
x1.vss.n2343                       5.07206e-05
x1.vss.n2248                       5.17221e-05
x1.vss.n160                        5.14433e-05
x1.vss.n2344                       5.11689e-05
x1.vss.n2247                       5.20641e-05
x1.vss.n2246                       5.18289e-05
x1.vss.n159                        5.15973e-05
x1.vss.n2245                       5.24165e-05
x1.vss.n155                        5.22122e-05
x1.vss.n2350                       5.20103e-05
x1.vss.n2244                       5.27778e-05
x1.vss.n154                        5.25939e-05
x1.vss.n2351                       5.24111e-05
x1.vss.n2243                       5.31471e-05
x1.vss.n153                        5.29748e-05
x1.vss.n2352                       5.28025e-05
x1.vss.n2242                        5.3524e-05
x1.vss.n2241                       5.33557e-05
x1.vss.n152                        5.31865e-05
x1.vss.n2240                       5.39082e-05
x1.vss.n148                        5.37372e-05
x1.vss.n2358                       5.35643e-05
x1.vss.n2239                          5.43e-05
x1.vss.n147                          5.412e-05
x1.vss.n2359                       5.39372e-05
x1.vss.n2238                       5.46996e-05
x1.vss.n146                        5.45046e-05
x1.vss.n2360                        5.4306e-05
x1.vss.n2237                       5.51077e-05
x1.vss.n2236                       5.48917e-05
x1.vss.n145                        5.46711e-05
x1.vss.n2235                       5.55253e-05
x1.vss.n141                        5.52817e-05
x1.vss.n2366                       5.50328e-05
x1.vss.n2234                       5.59535e-05
x1.vss.n140                        5.56754e-05
x1.vss.n2367                        5.5391e-05
x1.vss.n2233                        5.6394e-05
x1.vss.n139                        5.60733e-05
x1.vss.n2368                       5.57456e-05
x1.vss.n2232                       5.68484e-05
x1.vss.n2231                       5.64761e-05
x1.vss.n135                        5.60964e-05
x1.vss.n2230                       5.73192e-05
x1.vss.n134                        5.68837e-05
x1.vss.n2374                       5.64422e-05
x1.vss.n2229                        5.7809e-05
x1.vss.n133                        5.72954e-05
x1.vss.n2375                       5.67825e-05
x1.vss.n2228                       5.83213e-05
x1.vss.n132                        5.77065e-05
x1.vss.n2376                       5.71161e-05
x1.vss.n124                        5.81013e-05
x1.vss.n122                        5.88605e-05
x1.vss.n126                        5.74416e-05
x1.vss.n2384                       5.94329e-05
x1.vss.n2382                       5.77585e-05
x1.vss.n121                        5.93767e-05
x1.vss.n1715                       5.88099e-05
x1.vss.n1714                       5.92473e-05
x1.vss.n1713                        5.9137e-05
x1.vss.n1638                       5.87735e-05
x1.vss.n1712                       5.90427e-05
x1.vss.n1711                        5.8732e-05
x1.vss.n1710                       5.86931e-05
x1.vss.n1709                       5.89619e-05
x1.vss.n1708                       5.88929e-05
x1.vss.n1705                       5.87755e-05
x1.vss.n1704                       5.87244e-05
x1.vss.n1703                       5.85734e-05
x1.vss.n1702                       5.85509e-05
x1.vss.n1701                         5.868e-05
x1.vss.n1700                       5.86412e-05
x1.vss.n1699                       5.85312e-05
x1.vss.n1698                       5.85139e-05
x1.vss.n1697                       5.86073e-05
x1.vss.n1696                       5.85774e-05
x1.vss.n1695                       5.84988e-05
x1.vss.n1694                       5.84853e-05
x1.vss.n1693                        5.8551e-05
x1.vss.n1692                       5.85275e-05
x1.vss.n1691                       5.84734e-05
x1.vss.n1690                       5.84626e-05
x1.vss.n1689                       5.85063e-05
x1.vss.n1688                        5.8487e-05
x1.vss.n1687                       5.84528e-05
x1.vss.n1686                       5.84438e-05
x1.vss.n1685                       5.84692e-05
x1.vss.n1684                       5.84526e-05
x1.vss.n1683                       5.84353e-05
x1.vss.n1682                       5.84272e-05
x1.vss.n1681                       5.84367e-05
x1.vss.n1680                       5.84212e-05
x1.vss.n1679                       5.84194e-05
x1.vss.n1678                       5.84115e-05
x1.vss.n1677                       5.84058e-05
x1.vss.n1676                       5.83901e-05
x1.vss.n1675                       5.84036e-05
x1.vss.n1674                       5.83953e-05
x1.vss.n1673                       5.83738e-05
x1.vss.n1672                       5.83566e-05
x1.vss.n1671                       5.83866e-05
x1.vss.n1670                       5.83772e-05
x1.vss.n1669                       5.83381e-05
x1.vss.n1668                       5.83179e-05
x1.vss.n1667                       5.83669e-05
x1.vss.n1666                       5.83555e-05
x1.vss.n1665                       5.82956e-05
x1.vss.n1664                       5.82706e-05
x1.vss.n1661                       5.82143e-05
x1.vss.n1660                       5.81818e-05
x1.vss.n1659                       5.82977e-05
x1.vss.n1658                       5.82786e-05
x1.vss.n1657                       5.81442e-05
x1.vss.n1656                       5.81007e-05
x1.vss.n1655                       5.82565e-05
x1.vss.n1654                       5.82309e-05
x1.vss.n1653                       5.80504e-05
x1.vss.n1652                       5.79922e-05
x1.vss.n1651                       5.82014e-05
x1.vss.n1650                        5.8167e-05
x1.vss.n1649                       5.79249e-05
x1.vss.n1648                       5.78469e-05
x1.vss.n1647                       5.81272e-05
x1.vss.n1646                       5.80806e-05
x1.vss.n1645                       5.77567e-05
x1.vss.n1644                       5.76523e-05
x1.vss.n1643                       5.80252e-05
x1.vss.n1642                       5.79568e-05
x1.vss.n1641                       5.75316e-05
x1.vss.n1640                       5.73923e-05
x1.vss.n129                        5.69288e-05
x1.vss.n1718                       5.80488e-05
x1.vss.n2381                       5.72261e-05
x1.vss.n2380                       5.67465e-05
x1.vss.n2379                       5.65432e-05
x1.vss.n128                        5.69772e-05
x1.vss.n2378                       5.63209e-05
x1.vss.n2377                       5.67076e-05
x1.vss.n131                        5.64235e-05
x1.vss.n130                        5.60817e-05
x1.vss.n2373                       5.61277e-05
x1.vss.n2372                       5.58276e-05
x1.vss.n2371                       5.55602e-05
x1.vss.n136                        5.58221e-05
x1.vss.n2370                       5.52815e-05
x1.vss.n2369                       5.55083e-05
x1.vss.n138                        5.51873e-05
x1.vss.n137                        5.49928e-05
x1.vss.n2365                       5.48602e-05
x1.vss.n2364                       5.46956e-05
x1.vss.n2363                       5.43912e-05
x1.vss.n142                        5.45276e-05
x1.vss.n2362                       5.40808e-05
x1.vss.n2361                       5.41902e-05
x1.vss.n144                        5.38485e-05
x1.vss.n143                        5.37657e-05
x1.vss.n2357                       5.35028e-05
x1.vss.n2356                       5.34469e-05
x1.vss.n2355                       5.31256e-05
x1.vss.n149                        5.31533e-05
x1.vss.n2354                       5.28032e-05
x1.vss.n2353                       5.28001e-05
x1.vss.n151                         5.2443e-05
x1.vss.n150                        5.24809e-05
x1.vss.n2349                        5.2082e-05
x1.vss.n2348                       5.21603e-05
x1.vss.n2347                        5.1843e-05
x1.vss.n156                        5.17166e-05
x1.vss.n2346                       5.15314e-05
x1.vss.n2345                       5.13464e-05
x1.vss.n158                        5.09712e-05
x1.vss.n157                        5.12278e-05
x1.vss.n2341                        5.0592e-05
x1.vss.n2340                       5.09354e-05
x1.vss.n2339                       5.06581e-05
x1.vss.n163                         5.0214e-05
x1.vss.n2338                       5.04002e-05
x1.vss.n1785                       5.94431e-05
x1.vss.n1617                       5.90533e-05
x1.vss.n1616                       5.87258e-05
x1.vss.n1784                       5.94479e-05
x1.vss.n1783                       5.90413e-05
x1.vss.n1782                       5.86801e-05
x1.vss.n1779                       5.90068e-05
x1.vss.n1778                       5.94431e-05
x1.vss.n1780                       5.84713e-05
x1.vss.n1777                       5.94363e-05
x1.vss.n1720                       5.89713e-05
x1.vss.n1719                        5.8208e-05
x1.vss.n1776                       5.94313e-05
x1.vss.n1775                       5.89529e-05
x1.vss.n125                        5.79276e-05
x1.vss.n1536                       5.87853e-05
x1.vss.n1531                        5.8702e-05
x1.vss.n1877                        5.8765e-05
x1.vss.n1538                       5.87936e-05
x1.vss.n1876                       5.87369e-05
x1.vss.n1721                       5.88032e-05
x1.vss.n1537                       5.87829e-05
x1.vss.n1539                       5.87645e-05
x1.vss.n1722                       5.88136e-05
x1.vss.n1543                       5.87995e-05
x1.vss.n1870                       5.87871e-05
x1.vss.n1723                       5.88247e-05
x1.vss.n1544                       5.88149e-05
x1.vss.n1869                       5.88066e-05
x1.vss.n1724                       5.88361e-05
x1.vss.n1545                       5.88295e-05
x1.vss.n1868                       5.88238e-05
x1.vss.n1726                       5.88479e-05
x1.vss.n1725                       5.88433e-05
x1.vss.n1546                       5.88394e-05
x1.vss.n1727                       5.88599e-05
x1.vss.n1550                       5.88568e-05
x1.vss.n1862                       5.88541e-05
x1.vss.n1728                        5.8872e-05
x1.vss.n1551                       5.88699e-05
x1.vss.n1861                        5.8868e-05
x1.vss.n1729                       5.88842e-05
x1.vss.n1552                       5.88827e-05
x1.vss.n1860                       5.88815e-05
x1.vss.n1731                       5.88965e-05
x1.vss.n1730                       5.88955e-05
x1.vss.n1553                       5.88946e-05
x1.vss.n1732                       5.89088e-05
x1.vss.n1557                       5.89081e-05
x1.vss.n1854                       5.89075e-05
x1.vss.n1733                       5.89211e-05
x1.vss.n1558                       5.89207e-05
x1.vss.n1853                       5.89203e-05
x1.vss.n1734                       5.89335e-05
x1.vss.n1559                       5.89332e-05
x1.vss.n1852                       5.89329e-05
x1.vss.n1736                       5.89459e-05
x1.vss.n1735                       5.89457e-05
x1.vss.n1560                       5.89455e-05
x1.vss.n1737                       5.89582e-05
x1.vss.n1564                       5.89581e-05
x1.vss.n1846                        5.8958e-05
x1.vss.n1738                       5.89706e-05
x1.vss.n1565                       5.89706e-05
x1.vss.n1845                       5.89705e-05
x1.vss.n1739                        5.8983e-05
x1.vss.n1566                        5.8983e-05
x1.vss.n1844                        5.8983e-05
x1.vss.n1741                       5.89954e-05
x1.vss.n1740                       5.89954e-05
x1.vss.n1567                       5.89954e-05
x1.vss.n1742                       5.90078e-05
x1.vss.n1571                       5.90078e-05
x1.vss.n1838                       5.90079e-05
x1.vss.n1743                       5.90202e-05
x1.vss.n1572                       5.90202e-05
x1.vss.n1837                       5.90203e-05
x1.vss.n1744                       5.90326e-05
x1.vss.n1573                       5.90326e-05
x1.vss.n1836                       5.90327e-05
x1.vss.n1746                        5.9045e-05
x1.vss.n1745                        5.9045e-05
x1.vss.n1574                       5.90451e-05
x1.vss.n1747                       5.90574e-05
x1.vss.n1578                       5.90574e-05
x1.vss.n1830                       5.90575e-05
x1.vss.n1748                       5.90697e-05
x1.vss.n1579                       5.90698e-05
x1.vss.n1829                       5.90699e-05
x1.vss.n1749                       5.90821e-05
x1.vss.n1580                       5.90822e-05
x1.vss.n1828                       5.90823e-05
x1.vss.n1751                       5.90945e-05
x1.vss.n1750                       5.90946e-05
x1.vss.n1581                       5.90946e-05
x1.vss.n1752                       5.91069e-05
x1.vss.n1585                       5.91069e-05
x1.vss.n1822                        5.9107e-05
x1.vss.n1753                       5.91192e-05
x1.vss.n1586                       5.91192e-05
x1.vss.n1821                       5.91192e-05
x1.vss.n1754                       5.91316e-05
x1.vss.n1587                       5.91315e-05
x1.vss.n1820                       5.91314e-05
x1.vss.n1756                        5.9144e-05
x1.vss.n1755                       5.91437e-05
x1.vss.n1588                       5.91436e-05
x1.vss.n1757                       5.91564e-05
[...]
 Reference value :  7.43343e-06
 Reference value :  7.45343e-06
 Reference value :  7.47343e-06
 Reference value :  7.49343e-06
 Reference value :  7.51343e-06
 Reference value :  7.54343e-06
 Reference value :  7.56343e-06
 Reference value :  7.58343e-06
 Reference value :  7.60343e-06
 Reference value :  7.62343e-06
 Reference value :  7.64343e-06
 Reference value :  7.66343e-06
 Reference value :  7.68343e-06
 Reference value :  7.70343e-06
 Reference value :  7.72343e-06
 Reference value :  7.74343e-06
 Reference value :  7.76343e-06
 Reference value :  7.78343e-06
 Reference value :  7.80343e-06
 Reference value :  7.82343e-06
 Reference value :  7.84343e-06
 Reference value :  7.86343e-06
 Reference value :  7.88343e-06
 Reference value :  7.90343e-06
 Reference value :  7.92343e-06
 Reference value :  7.94343e-06
 Reference value :  7.96343e-06
 Reference value :  7.98343e-06
 Reference value :  8.00343e-06
 Reference value :  8.02343e-06
 Reference value :  8.04343e-06
 Reference value :  8.07343e-06
 Reference value :  8.10343e-06
 Reference value :  8.12343e-06
 Reference value :  8.14343e-06
 Reference value :  8.16343e-06
 Reference value :  8.18343e-06
 Reference value :  8.20343e-06
 Reference value :  8.22343e-06
 Reference value :  8.24343e-06
 Reference value :  8.26343e-06
 Reference value :  8.28343e-06
 Reference value :  8.30343e-06
 Reference value :  8.32343e-06
 Reference value :  8.34343e-06
 Reference value :  8.36343e-06
 Reference value :  8.38343e-06
 Reference value :  8.40343e-06
 Reference value :  8.42343e-06
 Reference value :  8.44343e-06
 Reference value :  8.46343e-06
 Reference value :  8.48343e-06
 Reference value :  8.50343e-06
 Reference value :  8.52343e-06
 Reference value :  8.54343e-06
 Reference value :  8.56343e-06
 Reference value :  8.58343e-06
 Reference value :  8.60343e-06
 Reference value :  8.62343e-06
 Reference value :  8.64343e-06
 Reference value :  8.66343e-06
 Reference value :  8.68343e-06
 Reference value :  8.70343e-06
 Reference value :  8.72343e-06
 Reference value :  8.74343e-06
 Reference value :  8.76343e-06
 Reference value :  8.78343e-06
 Reference value :  8.80343e-06
 Reference value :  8.82343e-06
 Reference value :  8.84343e-06
 Reference value :  8.86343e-06
 Reference value :  8.88343e-06
 Reference value :  8.90343e-06
 Reference value :  8.92343e-06
 Reference value :  8.94343e-06
 Reference value :  8.96343e-06
 Reference value :  8.98343e-06
 Reference value :  9.00343e-06
 Reference value :  9.02343e-06
 Reference value :  9.04343e-06
 Reference value :  9.06343e-06
 Reference value :  9.08343e-06
 Reference value :  9.10343e-06
 Reference value :  9.12343e-06
 Reference value :  9.14343e-06
 Reference value :  9.16343e-06
 Reference value :  9.18343e-06
 Reference value :  9.20343e-06
 Reference value :  9.22343e-06
 Reference value :  9.24343e-06
 Reference value :  9.26343e-06
 Reference value :  9.29343e-06
 Reference value :  9.31343e-06
 Reference value :  9.33343e-06
 Reference value :  9.35343e-06
 Reference value :  9.37343e-06
 Reference value :  9.39343e-06
 Reference value :  9.41343e-06
 Reference value :  9.43343e-06
 Reference value :  9.45343e-06
 Reference value :  9.47343e-06
 Reference value :  9.49343e-06
 Reference value :  9.51343e-06
 Reference value :  9.53343e-06
 Reference value :  9.55343e-06
 Reference value :  9.57343e-06
 Reference value :  9.59343e-06
 Reference value :  9.61343e-06
 Reference value :  9.63343e-06
 Reference value :  9.65343e-06
 Reference value :  9.67343e-06
 Reference value :  9.69343e-06
 Reference value :  9.71343e-06
 Reference value :  9.73343e-06
 Reference value :  9.75343e-06
 Reference value :  9.77343e-06
 Reference value :  9.79343e-06
 Reference value :  9.81343e-06
 Reference value :  9.83343e-06
 Reference value :  9.85343e-06
 Reference value :  9.88343e-06
 Reference value :  9.90343e-06
 Reference value :  9.92343e-06
 Reference value :  9.95343e-06
 Reference value :  9.98343e-06
 Reference value :  1.00034e-05
 Reference value :  1.00234e-05
 Reference value :  1.00434e-05
 Reference value :  1.00634e-05
 Reference value :  1.00834e-05
 Reference value :  1.01034e-05
 Reference value :  1.01234e-05
 Reference value :  1.01434e-05
 Reference value :  1.01634e-05
 Reference value :  1.01834e-05
 Reference value :  1.02034e-05
 Reference value :  1.02234e-05
 Reference value :  1.02434e-05
 Reference value :  1.02634e-05
 Reference value :  1.02834e-05
 Reference value :  1.03034e-05
 Reference value :  1.03234e-05
 Reference value :  1.03434e-05
 Reference value :  1.03634e-05
 Reference value :  1.03834e-05
 Reference value :  1.04034e-05
 Reference value :  1.04234e-05
 Reference value :  1.04434e-05
 Reference value :  1.04634e-05
 Reference value :  1.04734e-05
 Reference value :  1.04934e-05
 Reference value :  1.05134e-05
 Reference value :  1.05334e-05
 Reference value :  1.05534e-05
 Reference value :  1.05734e-05
 Reference value :  1.05934e-05
 Reference value :  1.06134e-05
 Reference value :  1.06334e-05
 Reference value :  1.06534e-05
 Reference value :  1.06634e-05
 Reference value :  1.06834e-05
 Reference value :  1.07034e-05
 Reference value :  1.07234e-05
 Reference value :  1.07434e-05
 Reference value :  1.07634e-05
 Reference value :  1.07834e-05
 Reference value :  1.08034e-05
 Reference value :  1.08234e-05
 Reference value :  1.08434e-05
 Reference value :  1.08634e-05
 Reference value :  1.08834e-05
 Reference value :  1.09034e-05
 Reference value :  1.09234e-05
 Reference value :  1.09434e-05
 Reference value :  1.09634e-05
 Reference value :  1.09834e-05
 Reference value :  1.10034e-05
 Reference value :  1.10234e-05
 Reference value :  1.10434e-05
 Reference value :  1.10634e-05
 Reference value :  1.10834e-05
 Reference value :  1.11034e-05
 Reference value :  1.11234e-05
 Reference value :  1.11434e-05
 Reference value :  1.11634e-05
 Reference value :  1.11834e-05
 Reference value :  1.12034e-05
 Reference value :  1.12234e-05
 Reference value :  1.12434e-05
 Reference value :  1.12634e-05
 Reference value :  1.12834e-05
 Reference value :  1.13034e-05
 Reference value :  1.13234e-05
 Reference value :  1.13434e-05
 Reference value :  1.13734e-05
 Reference value :  1.13934e-05
 Reference value :  1.14134e-05
 Reference value :  1.14334e-05
 Reference value :  1.14534e-05
 Reference value :  1.14734e-05
 Reference value :  1.14934e-05
 Reference value :  1.15134e-05
 Reference value :  1.15334e-05
 Reference value :  1.15534e-05
 Reference value :  1.15734e-05
 Reference value :  1.15934e-05
 Reference value :  1.16134e-05
 Reference value :  1.16334e-05
 Reference value :  1.16534e-05
 Reference value :  1.16734e-05
 Reference value :  1.16934e-05
 Reference value :  1.17134e-05
 Reference value :  1.17334e-05
 Reference value :  1.17534e-05
 Reference value :  1.17734e-05
 Reference value :  1.17934e-05
 Reference value :  1.18134e-05
 Reference value :  1.18334e-05
 Reference value :  1.18534e-05
 Reference value :  1.18734e-05
 Reference value :  1.18934e-05
 Reference value :  1.19134e-05
 Reference value :  1.19334e-05
 Reference value :  1.19534e-05
 Reference value :  1.19734e-05
 Reference value :  1.19934e-05
 Reference value :  1.20134e-05
 Reference value :  1.20334e-05
 Reference value :  1.20534e-05
 Reference value :  1.20734e-05
 Reference value :  1.20934e-05
 Reference value :  1.21134e-05
 Reference value :  1.21334e-05
 Reference value :  1.21534e-05
 Reference value :  1.21734e-05
 Reference value :  1.21934e-05
 Reference value :  1.22234e-05
 Reference value :  1.22434e-05
 Reference value :  1.22634e-05
 Reference value :  1.22834e-05
 Reference value :  1.23034e-05
 Reference value :  1.23234e-05
 Reference value :  1.23434e-05
 Reference value :  1.23634e-05
 Reference value :  1.23934e-05
 Reference value :  1.24134e-05
 Reference value :  1.24334e-05
 Reference value :  1.24534e-05
 Reference value :  1.24834e-05
 Reference value :  1.25134e-05
 Reference value :  1.25334e-05
 Reference value :  1.25634e-05
 Reference value :  1.25834e-05
 Reference value :  1.26034e-05
 Reference value :  1.26334e-05
 Reference value :  1.26634e-05
 Reference value :  1.26834e-05
 Reference value :  1.27034e-05
 Reference value :  1.27234e-05
 Reference value :  1.27434e-05
 Reference value :  1.27634e-05
 Reference value :  1.27834e-05
 Reference value :  1.28034e-05
 Reference value :  1.28234e-05
 Reference value :  1.28434e-05
 Reference value :  1.28634e-05
 Reference value :  1.28834e-05
 Reference value :  1.29034e-05
 Reference value :  1.29234e-05
 Reference value :  1.29434e-05
 Reference value :  1.29634e-05
 Reference value :  1.29834e-05
 Reference value :  1.30034e-05
 Reference value :  1.30234e-05
 Reference value :  1.30434e-05
 Reference value :  1.30634e-05
 Reference value :  1.30834e-05
 Reference value :  1.31034e-05
 Reference value :  1.31234e-05
 Reference value :  1.31434e-05
 Reference value :  1.31634e-05
 Reference value :  1.31834e-05
 Reference value :  1.32034e-05
 Reference value :  1.32234e-05
 Reference value :  1.32434e-05
 Reference value :  1.32634e-05
 Reference value :  1.32834e-05
 Reference value :  1.33034e-05
 Reference value :  1.33234e-05
 Reference value :  1.33434e-05
 Reference value :  1.33634e-05
 Reference value :  1.33834e-05
 Reference value :  1.34034e-05
 Reference value :  1.34234e-05
 Reference value :  1.34434e-05
 Reference value :  1.34634e-05
 Reference value :  1.34834e-05
 Reference value :  1.35034e-05
 Reference value :  1.35234e-05
 Reference value :  1.35434e-05
 Reference value :  1.35634e-05
 Reference value :  1.35834e-05
 Reference value :  1.36034e-05
 Reference value :  1.36334e-05
 Reference value :  1.36534e-05
 Reference value :  1.36734e-05
 Reference value :  1.36934e-05
 Reference value :  1.37134e-05
 Reference value :  1.37334e-05
 Reference value :  1.37534e-05
 Reference value :  1.37734e-05
 Reference value :  1.37934e-05
 Reference value :  1.38134e-05
 Reference value :  1.38334e-05
 Reference value :  1.38534e-05
 Reference value :  1.38734e-05
 Reference value :  1.38934e-05
 Reference value :  1.39134e-05
 Reference value :  1.39334e-05
 Reference value :  1.39534e-05
 Reference value :  1.39734e-05
 Reference value :  1.39934e-05
 Reference value :  1.40134e-05
 Reference value :  1.40334e-05
 Reference value :  1.40534e-05
 Reference value :  1.40734e-05
 Reference value :  1.40934e-05
 Reference value :  1.41134e-05
 Reference value :  1.41334e-05
 Reference value :  1.41534e-05
 Reference value :  1.41734e-05
 Reference value :  1.41934e-05
 Reference value :  1.42134e-05
 Reference value :  1.42334e-05
 Reference value :  1.42534e-05
 Reference value :  1.42734e-05
 Reference value :  1.42934e-05
 Reference value :  1.43134e-05
 Reference value :  1.43334e-05
 Reference value :  1.43534e-05
 Reference value :  1.43734e-05
 Reference value :  1.43934e-05
 Reference value :  1.44134e-05
 Reference value :  1.44334e-05
 Reference value :  1.44534e-05
 Reference value :  1.44734e-05
 Reference value :  1.44934e-05
 Reference value :  1.45134e-05
 Reference value :  1.45334e-05
 Reference value :  1.45534e-05
 Reference value :  1.45734e-05
 Reference value :  1.45934e-05
 Reference value :  1.46134e-05
 Reference value :  1.46334e-05
 Reference value :  1.46534e-05
 Reference value :  1.46734e-05
 Reference value :  1.46934e-05
 Reference value :  1.47134e-05
 Reference value :  1.47334e-05
 Reference value :  1.47534e-05
 Reference value :  1.47734e-05
 Reference value :  1.47934e-05
 Reference value :  1.48134e-05
 Reference value :  1.48334e-05
 Reference value :  1.48534e-05
 Reference value :  1.48734e-05
 Reference value :  1.48834e-05
 Reference value :  1.49034e-05
 Reference value :  1.49234e-05
 Reference value :  1.49434e-05
 Reference value :  1.49634e-05
 Reference value :  1.49834e-05
 Reference value :  1.50034e-05
 Reference value :  1.50234e-05
 Reference value :  1.50434e-05
 Reference value :  1.50634e-05
 Reference value :  1.50834e-05
 Reference value :  1.51034e-05
 Reference value :  1.51234e-05
 Reference value :  1.51434e-05
 Reference value :  1.51634e-05
 Reference value :  1.51834e-05
 Reference value :  1.52034e-05
 Reference value :  1.52234e-05
 Reference value :  1.52434e-05
 Reference value :  1.52634e-05
 Reference value :  1.52834e-05
 Reference value :  1.53034e-05
 Reference value :  1.53234e-05
 Reference value :  1.53434e-05
 Reference value :  1.53634e-05
 Reference value :  1.53834e-05
 Reference value :  1.54034e-05
 Reference value :  1.54234e-05
 Reference value :  1.54434e-05
 Reference value :  1.54634e-05
 Reference value :  1.54834e-05
 Reference value :  1.55034e-05
 Reference value :  1.55234e-05
 Reference value :  1.55434e-05
 Reference value :  1.55634e-05
 Reference value :  1.55834e-05
 Reference value :  1.56034e-05
 Reference value :  1.56234e-05
 Reference value :  1.56434e-05
 Reference value :  1.56634e-05
 Reference value :  1.56834e-05
 Reference value :  1.57034e-05
 Reference value :  1.57234e-05
 Reference value :  1.57434e-05
 Reference value :  1.57634e-05
 Reference value :  1.57834e-05
 Reference value :  1.58034e-05
 Reference value :  1.58234e-05
 Reference value :  1.58434e-05
 Reference value :  1.58634e-05
 Reference value :  1.58834e-05
 Reference value :  1.59034e-05
 Reference value :  1.59234e-05
 Reference value :  1.59434e-05
 Reference value :  1.59634e-05
 Reference value :  1.59834e-05
 Reference value :  1.60034e-05
 Reference value :  1.60234e-05
 Reference value :  1.60434e-05
 Reference value :  1.60634e-05
 Reference value :  1.60834e-05
 Reference value :  1.61034e-05
 Reference value :  1.61234e-05
 Reference value :  1.61434e-05
 Reference value :  1.61634e-05
 Reference value :  1.61834e-05
 Reference value :  1.62034e-05
 Reference value :  1.62234e-05
 Reference value :  1.62434e-05
 Reference value :  1.62634e-05
 Reference value :  1.62834e-05
 Reference value :  1.63034e-05
 Reference value :  1.63234e-05
 Reference value :  1.63434e-05
 Reference value :  1.63634e-05
 Reference value :  1.63834e-05
 Reference value :  1.64034e-05
 Reference value :  1.64234e-05
 Reference value :  1.64434e-05
 Reference value :  1.64634e-05
 Reference value :  1.64834e-05
 Reference value :  1.65034e-05
 Reference value :  1.65234e-05
 Reference value :  1.65434e-05
 Reference value :  1.65634e-05
 Reference value :  1.65834e-05
 Reference value :  1.66034e-05
 Reference value :  1.66234e-05
 Reference value :  1.66434e-05
 Reference value :  1.66634e-05
 Reference value :  1.66834e-05
 Reference value :  1.67034e-05
 Reference value :  1.67234e-05
 Reference value :  1.67434e-05
 Reference value :  1.67634e-05
 Reference value :  1.67834e-05
 Reference value :  1.68034e-05
 Reference value :  1.68234e-05
 Reference value :  1.68434e-05
 Reference value :  1.68634e-05
 Reference value :  1.68834e-05
 Reference value :  1.69034e-05
 Reference value :  1.69234e-05
 Reference value :  1.69434e-05
 Reference value :  1.69634e-05
 Reference value :  1.69834e-05
 Reference value :  1.70034e-05
 Reference value :  1.70234e-05
 Reference value :  1.70434e-05
 Reference value :  1.70634e-05
 Reference value :  1.70834e-05
 Reference value :  1.71034e-05
 Reference value :  1.71234e-05
 Reference value :  1.71434e-05
 Reference value :  1.71634e-05
 Reference value :  1.71834e-05
 Reference value :  1.72034e-05
 Reference value :  1.72234e-05
 Reference value :  1.72434e-05
 Reference value :  1.72634e-05
 Reference value :  1.72834e-05
 Reference value :  1.73034e-05
 Reference value :  1.73234e-05
 Reference value :  1.73434e-05
 Reference value :  1.73634e-05
 Reference value :  1.73834e-05
 Reference value :  1.74134e-05
 Reference value :  1.74334e-05
 Reference value :  1.74534e-05
 Reference value :  1.74834e-05
 Reference value :  1.75134e-05
 Reference value :  1.75334e-05
 Reference value :  1.75534e-05
 Reference value :  1.75734e-05
 Reference value :  1.75934e-05
 Reference value :  1.76134e-05
 Reference value :  1.76334e-05
 Reference value :  1.76534e-05
 Reference value :  1.76734e-05
 Reference value :  1.76934e-05
 Reference value :  1.77134e-05
 Reference value :  1.77334e-05
 Reference value :  1.77534e-05
 Reference value :  1.77734e-05
 Reference value :  1.77934e-05
 Reference value :  1.78134e-05
 Reference value :  1.78334e-05
 Reference value :  1.78534e-05
 Reference value :  1.78734e-05
 Reference value :  1.78934e-05
 Reference value :  1.79134e-05
 Reference value :  1.79334e-05
 Reference value :  1.79534e-05
 Reference value :  1.79734e-05
 Reference value :  1.79934e-05
 Reference value :  1.80134e-05
 Reference value :  1.80334e-05
 Reference value :  1.80534e-05
 Reference value :  1.80734e-05
 Reference value :  1.80934e-05
 Reference value :  1.81134e-05
 Reference value :  1.81334e-05
 Reference value :  1.81534e-05
 Reference value :  1.81734e-05
 Reference value :  1.81934e-05
 Reference value :  1.82134e-05
 Reference value :  1.82334e-05
 Reference value :  1.82534e-05
 Reference value :  1.82734e-05
 Reference value :  1.82934e-05
 Reference value :  1.83134e-05
 Reference value :  1.83334e-05
 Reference value :  1.83534e-05
 Reference value :  1.83734e-05
 Reference value :  1.83934e-05
 Reference value :  1.84134e-05
 Reference value :  1.84334e-05
 Reference value :  1.84534e-05
 Reference value :  1.84734e-05
 Reference value :  1.84934e-05
 Reference value :  1.85234e-05
 Reference value :  1.85434e-05
 Reference value :  1.85634e-05
 Reference value :  1.85834e-05
 Reference value :  1.86034e-05
 Reference value :  1.86334e-05
 Reference value :  1.86534e-05
 Reference value :  1.86734e-05
 Reference value :  1.86934e-05
 Reference value :  1.87134e-05
 Reference value :  1.87334e-05
 Reference value :  1.87534e-05
 Reference value :  1.87734e-05
 Reference value :  1.87934e-05
 Reference value :  1.88134e-05
 Reference value :  1.88334e-05
 Reference value :  1.88534e-05
 Reference value :  1.88734e-05
 Reference value :  1.88934e-05
 Reference value :  1.89234e-05
 Reference value :  1.89434e-05
 Reference value :  1.89634e-05
 Reference value :  1.89834e-05
 Reference value :  1.90034e-05
 Reference value :  1.90234e-05
 Reference value :  1.90434e-05
 Reference value :  1.90634e-05
 Reference value :  1.90834e-05
 Reference value :  1.91034e-05
 Reference value :  1.91234e-05
 Reference value :  1.91434e-05
 Reference value :  1.91634e-05
 Reference value :  1.91834e-05
 Reference value :  1.92034e-05
 Reference value :  1.92234e-05
 Reference value :  1.92434e-05
 Reference value :  1.92534e-05
 Reference value :  1.92734e-05
 Reference value :  1.92934e-05
 Reference value :  1.93134e-05
 Reference value :  1.93334e-05
 Reference value :  1.93534e-05
 Reference value :  1.93734e-05
 Reference value :  1.93934e-05
 Reference value :  1.94134e-05
 Reference value :  1.94334e-05
 Reference value :  1.94534e-05
 Reference value :  1.94734e-05
 Reference value :  1.94934e-05
 Reference value :  1.95134e-05
 Reference value :  1.95334e-05
 Reference value :  1.95534e-05
 Reference value :  1.95734e-05
 Reference value :  1.95934e-05
 Reference value :  1.96134e-05
 Reference value :  1.96334e-05
 Reference value :  1.96534e-05
 Reference value :  1.96734e-05
 Reference value :  1.96934e-05
 Reference value :  1.97134e-05
 Reference value :  1.97334e-05
 Reference value :  1.97534e-05
 Reference value :  1.97734e-05
 Reference value :  1.97934e-05
 Reference value :  1.98134e-05
 Reference value :  1.98334e-05
 Reference value :  1.98534e-05
 Reference value :  1.98734e-05
 Reference value :  1.98934e-05
 Reference value :  1.99234e-05
 Reference value :  1.99434e-05
 Reference value :  1.99634e-05
 Reference value :  1.99934e-05
No. of Data Rows : 2025
 meas tran sr_pos max deriv(v(vout)) failed!

 meas tran sr_neg min deriv(v(vout)) failed!

Note: Simulation executed from .control section 
