
Note: Compatibility modes selected: hs a


Circuit: ** sch_path: /foss/designs/sky130_op_amp/runs/run_2025-10-21_18-52-57/parameters/slew_rate/run_42/transient.sch

option SCALE: Scale is set to 1e-06 for instance and model parameters
option SCALE: Scale is set to 1e-06 for instance and model parameters
option SCALE: Scale is set to 1e-06 for instance and model parameters
option SCALE: Scale is set to 1e-06 for instance and model parameters
Doing analysis at TEMP = 130.000000 and TNOM = 27.000000

Using SPARSE 1.3 as Direct Linear Solver

Initial Transient Solution
--------------------------

Node                                   Voltage
----                                   -------
vdd                                        1.7
ibias                                 0.586848
vout                               1.42474e-05
vss                                          0
vn                                 1.42474e-05
vp                                           0
x1.a_8862_4192.t27                  0.00135672
x1.en.t0                                   1.7
x1.vss.t311                        9.30066e-05
x1.vss.t215                          5.474e-05
x1.vdd.t97                                 1.7
x1.vdd.t96                                 1.7
x1.vdd.t44                                 1.7
x1.vdd.t95                                 1.7
x1.vdd.t93                                 1.7
x1.vdd.t94                                 1.7
x1.vdd.t47                                 1.7
x1.a_3868_4185.t39                 1.22464e-05
x1.ibias.t10                          0.586827
x1.a_3329_8823.t39                  1.3184e-05
x1.vss.t0                          1.41718e-05
x1.a_n1962_4406.t59                1.23588e-05
x1.ibias.t11                          0.586827
x1.vout.t21                        1.41841e-05
x1.vss.t6                           1.2221e-05
x1.a_n1962_4406.t58                1.23588e-05
x1.ibias.t12                          0.586827
x1.vout.t53                        1.41847e-05
x1.vss.t211                        5.35403e-05
x1.vss.t209                        5.36997e-05
x1.vss.t210                        6.85691e-05
x1.vss.t30                         5.01494e-05
x1.a_3329_8823.t38                  1.3184e-05
x1.ibias.t13                          0.586827
x1.a_3868_4185.t38                 1.22464e-05
x1.vss.t1                          1.40099e-05
x1.vss.t208                        1.22127e-05
x1.vss.t207                         1.2212e-05
x1.vss.t64                         1.40986e-05
x1.vdd.t92                                 1.7
x1.vdd.t91                                 1.7
x1.vdd.t71                                 1.7
x1.a_3868_4185.t37                 1.22464e-05
x1.ibias.t14                          0.586827
x1.a_3329_8823.t8                   1.3184e-05
x1.vss.t11                           1.385e-05
x1.a_n735_8972.t23                     1.33692
x1.vp.t0                                     0
x1.a_3329_8823.t56                 1.31961e-05
x1.vss.t2                           1.3605e-05
x1.vss.t310                         1.2135e-05
x1.en.t1                                   1.7
x1.a_n1962_4406.t123               1.23559e-05
x1.vss.t77                         1.22276e-05
x1.a_3868_4185.t36                 1.22437e-05
x1.ibias.t15                          0.586827
x1.a_3329_8823.t17                 1.31841e-05
x1.vss.t7                           1.4544e-05
x1.a_3329_8823.t66                 1.31965e-05
x1.vn.t0                           1.42474e-05
x1.a_n935_8875.t15                     1.33591
x1.vss.t4                          1.37233e-05
x1.vdd.t19                                 1.7
x1.a_n735_8972.t27                     1.33692
x1.vout.t67                        1.42747e-05
x1.vdd.t15                                 1.7
x1.a_n1962_4406.t122               1.23578e-05
x1.en.t2                                   1.7
x1.vss.t309                         1.2135e-05
x1.vss.t8                          1.22265e-05
x1.a_3329_8823.t65                 1.31961e-05
x1.vn.t1                           1.42474e-05
x1.a_n935_8875.t14                     1.33591
x1.vss.t5                          1.34873e-05
x1.vdd.t36                                 1.7
x1.a_n735_8972.t28                     1.33692
x1.vout.t77                        1.42727e-05
x1.vdd.t5                                  1.7
x1.vss.t206                        1.22121e-05
x1.vss.t205                        1.22121e-05
x1.a_3329_8823.t55                 1.31948e-05
x1.a_n1962_4406.t57                1.23635e-05
x1.ibias.t16                          0.586827
x1.vout.t45                        1.41835e-05
x1.vss.t212                        1.22228e-05
x1.a_n1962_4406.t56                 1.2359e-05
x1.ibias.t17                          0.586827
x1.vout.t2                         1.41837e-05
x1.vss.t308                         1.2135e-05
x1.en.t3                                   1.7
x1.a_n1962_4406.t121               1.23579e-05
x1.vss.t19                         1.22237e-05
x1.a_3329_8823.t43                 1.31962e-05
x1.vn.t2                           1.42474e-05
x1.a_n935_8875.t13                     1.33591
x1.vdd.t90                                 1.7
x1.vdd.t89                                 1.7
x1.a_n1962_4406.t79                1.23611e-05
x1.vss.t203                        1.21171e-05
x1.vss.t204                        1.21171e-05
x1.vss.t20                         1.22246e-05
x1.a_n1962_4406.t120               1.23579e-05
x1.en.t4                                   1.7
x1.vss.t307                        1.21367e-05
x1.vout.t38                        1.41838e-05
x1.ibias.t18                          0.586827
x1.a_n1962_4406.t55                1.23589e-05
x1.vss.t12                         1.22256e-05
x1.vss.t202                        1.21171e-05
x1.vss.t201                        1.21171e-05
x1.a_n1962_4406.t78                1.23565e-05
x1.vss.t56                         1.22296e-05
x1.vdd.t88                                 1.7
x1.vdd.t87                                 1.7
x1.a_n935_8875.t12                     1.33591
x1.vn.t3                           1.42474e-05
x1.a_3329_8823.t62                 1.31948e-05
x1.vss.t84                         1.33406e-05
x1.vout.t46                        1.41835e-05
x1.ibias.t19                          0.586827
x1.a_n1962_4406.t54                1.23635e-05
x1.vss.t9                          1.22219e-05
x1.vdd.t86                                 1.7
x1.vdd.t84                                 1.7
x1.vdd.t85                                 1.7
x1.a_3329_8823.t63                 1.31951e-05
x1.vp.t1                                     0
x1.a_n735_8972.t22                     1.33692
x1.vss.t89                         1.39617e-05
x1.vss.t306                        1.21367e-05
x1.en.t5                                   1.7
x1.a_n1962_4406.t119               1.23579e-05
x1.vdd.t17                                 1.7
x1.a_n735_8972.t29                     1.33692
x1.vout.t65                        1.42768e-05
x1.vdd.t16                                 1.7
x1.a_n735_8972.t30                     1.33692
x1.vout.t64                        1.42763e-05
x1.vss.t198                        1.21171e-05
x1.vss.t197                        1.21171e-05
x1.a_n1962_4406.t53                1.23615e-05
x1.ibias.t20                          0.586827
x1.vout.t42                        1.41835e-05
x1.vss.t45                         1.22224e-05
x1.vout.t35                        1.41835e-05
x1.ibias.t21                          0.586827
x1.a_n1962_4406.t52                 1.2359e-05
x1.vss.t16                         1.22201e-05
x1.vss.t200                        1.20915e-05
x1.vss.t199                        1.20915e-05
x1.a_3868_4185.t55                 1.22425e-05
x1.vss.t27                         1.57239e-05
x1.vss.t196                        1.20915e-05
x1.vss.t195                        1.20915e-05
x1.a_3868_4185.t54                 1.22425e-05
x1.a_n1962_4406.t77                 1.2361e-05
x1.vss.t193                        1.21171e-05
x1.vss.t194                        1.21171e-05
x1.vss.t38                         1.22287e-05
x1.a_3329_8823.t42                 1.31963e-05
x1.vn.t4                           1.42474e-05
x1.a_n935_8875.t11                     1.33591
x1.a_n1962_4406.t118               1.23578e-05
x1.en.t6                                   1.7
x1.vss.t305                        1.21349e-05
x1.vss.t15                         1.22198e-05
x1.a_n1962_4406.t117               1.23578e-05
x1.en.t7                                   1.7
x1.vss.t304                        1.21314e-05
x1.vss.t192                         7.0367e-05
x1.vss.t191                        6.30217e-05
x1.vss.t22                         5.73696e-05
x1.a_n735_8972.t21                     1.33692
x1.vp.t2                                     0
x1.a_3329_8823.t73                 1.31959e-05
x1.vss.t313                        1.39957e-05
x1.a_n1962_4406.t51                1.23589e-05
x1.ibias.t22                          0.586827
x1.vout.t9                         1.41842e-05
x1.a_n1962_4406.t116               1.23579e-05
x1.en.t8                                   1.7
x1.vss.t303                        1.21275e-05
x1.a_3329_8823.t35                 1.31845e-05
x1.ibias.t23                          0.586827
x1.a_3868_4185.t35                 1.22455e-05
x1.vss.t14                         1.36885e-05
x1.ibias.t7                           0.586614
x1.ibias.t6                           0.586816
x1.a_8862_4192.t0                   0.00158684
x1.vss.t214                        5.33363e-05
x1.vss.t302                        0.000103844
x1.en.t9                                   1.7
x1.a_8862_4192.t26                  0.00135599
x1.a_n935_8875.t33                     1.33591
x1.a_n935_8875.t32                     1.33591
x1.vdd.t110                                1.7
x1.vdd.t8                                  1.7
x1.a_n1962_4406.t50                 1.2359e-05
x1.ibias.t24                          0.586827
x1.vout.t3                         1.41848e-05
x1.vss.t190                        1.21171e-05
x1.vss.t188                        1.21171e-05
x1.vss.t189                        1.21171e-05
x1.vout.t0                         1.41841e-05
x1.ibias.t25                          0.586827
x1.a_n1962_4406.t49                 1.2359e-05
x1.vout.t6                         1.41847e-05
x1.ibias.t26                          0.586827
x1.a_n1962_4406.t48                 1.2359e-05
x1.a_3868_4185.t53                 1.22452e-05
x1.vss.t186                        1.20915e-05
x1.vss.t187                        1.20915e-05
x1.vss.t51                         1.35198e-05
x1.a_8862_4192.t25                  0.00135592
x1.en.t10                                  1.7
x1.vss.t301                        7.70661e-05
x1.vss.t219                        5.18461e-05
x1.vss.t185                        5.90694e-05
x1.vss.t183                        5.91559e-05
x1.vss.t184                        7.40083e-05
x1.vdd.t7                                  1.7
x1.a_n735_8972.t31                     1.33692
x1.vout.t62                        1.42748e-05
x1.a_n735_8972.t7                      1.33692
x1.x62.x0.t1                           1.33692
x1.x62.x0.t2                           1.33692
x1.a_9909_7861.t0                      1.33692
x1.vss.t218                        5.90511e-05
x1.x62.x0.rbody_3                            0
x1.a_3868_4185.t34                 1.22453e-05
x1.ibias.t27                          0.586827
x1.a_3329_8823.t4                  1.31845e-05
x1.vss.t10                         1.51827e-05
x1.a_8862_4192.t3                   0.00158684
x1.ibias.t4                           0.586815
x1.ibias.t5                           0.586703
x1.vss.t300                        1.21383e-05
x1.en.t11                                  1.7
x1.a_n1962_4406.t115                1.2358e-05
x1.vss.t17                         1.22203e-05
x1.a_n1962_4406.t114               1.23559e-05
x1.en.t12                                  1.7
x1.vss.t299                        1.21292e-05
x1.vss.t182                        1.21171e-05
x1.vss.t181                        1.21171e-05
x1.a_n735_8972.t24                     1.33692
x1.a_n935_8875.t34                     1.33591
x1.vdd.t103                                1.7
x1.vdd.t30                                 1.7
x1.vss.t180                        1.22121e-05
x1.vss.t179                        1.22121e-05
x1.a_3329_8823.t54                 1.31947e-05
x1.a_3329_8823.t2                  1.31845e-05
x1.ibias.t28                          0.586827
x1.a_3868_4185.t33                 1.22464e-05
x1.vss.t13                         1.48319e-05
x1.vss.t178                        6.88982e-05
x1.vss.t177                        6.15452e-05
x1.vss.t293                        1.21008e-05
x1.en.t13                                  1.7
x1.a_3868_4185.t79                 1.22431e-05
x1.vss.t18                         1.43421e-05
x1.a_n935_8875.t10                     1.33591
x1.vn.t5                           1.42474e-05
x1.a_3329_8823.t64                 1.31962e-05
x1.vss.t298                        1.21293e-05
x1.en.t14                                  1.7
x1.a_n1962_4406.t113               1.23577e-05
x1.vss.t176                        1.21171e-05
x1.vss.t175                        1.21171e-05
x1.a_n1962_4406.t76                 1.2361e-05
x1.a_3329_8823.t71                  1.3195e-05
x1.vn.t6                           1.42474e-05
x1.a_n935_8875.t9                      1.33591
x1.vdd.t83                                 1.7
x1.vdd.t82                                 1.7
x1.a_3868_4185.t78                 1.22431e-05
x1.en.t15                                  1.7
x1.vss.t297                         1.2101e-05
x1.a_3868_4185.t77                 1.22431e-05
x1.en.t16                                  1.7
x1.vss.t296                        1.21009e-05
x1.vdd.t33                                 1.7
x1.a_n735_8972.t32                     1.33692
x1.vout.t75                        1.42766e-05
x1.vss.t295                        9.15927e-05
x1.en.t17                                  1.7
x1.a_8862_4192.t24                  0.00135529
x1.a_3329_8823.t28                 1.31841e-05
x1.ibias.t29                          0.586827
x1.a_3868_4185.t32                 1.22454e-05
x1.a_3329_8823.t77                 1.31966e-05
x1.vp.t3                                     0
x1.a_n735_8972.t20                     1.33692
x1.vdd.t105                                1.7
x1.a_n735_8972.t33                     1.33692
x1.vout.t86                        1.42754e-05
x1.a_3868_4185.t31                 1.22437e-05
x1.ibias.t30                          0.586827
x1.a_3329_8823.t11                  1.3184e-05
x1.a_n1962_4406.t112               1.23578e-05
x1.en.t18                                  1.7
x1.vss.t294                        1.21331e-05
x1.a_8862_4192.t23                  0.00135524
x1.en.t19                                  1.7
x1.vss.t292                        7.22326e-05
x1.vss.t174                        5.45775e-05
x1.vss.t172                        5.45985e-05
x1.vss.t173                        6.93264e-05
x1.a_3329_8823.t12                  1.3184e-05
x1.ibias.t31                          0.586827
x1.a_3868_4185.t30                 1.22437e-05
x1.a_3868_4185.t52                 1.22451e-05
x1.vss.t170                        1.20915e-05
x1.vss.t171                        1.20915e-05
x1.vout.t49                        1.41844e-05
x1.ibias.t32                          0.586827
x1.a_n1962_4406.t47                1.23588e-05
x1.vout.t28                        1.41851e-05
x1.ibias.t33                          0.586827
x1.a_n1962_4406.t46                1.23588e-05
x1.a_n1962_4406.t45                1.23615e-05
x1.ibias.t34                          0.586827
x1.vout.t57                        1.41855e-05
x1.a_3868_4185.t76                 1.22421e-05
x1.en.t20                                  1.7
x1.vss.t291                        1.21008e-05
x1.a_3329_8823.t61                 1.31962e-05
x1.vp.t4                                     0
x1.a_n735_8972.t19                     1.33692
x1.vout.t69                        1.42768e-05
x1.a_n735_8972.t34                     1.33692
x1.vdd.t23                                 1.7
x1.vdd.t13                                 1.7
x1.vss.t130                        1.21171e-05
x1.vss.t129                        1.21171e-05
x1.a_3868_4185.t75                 1.22431e-05
x1.en.t21                                  1.7
x1.vss.t290                        1.21008e-05
x1.vss.t289                        1.21008e-05
x1.en.t22                                  1.7
x1.a_3868_4185.t74                 1.22431e-05
x1.vout.t54                        1.41838e-05
x1.ibias.t35                          0.586827
x1.a_n1962_4406.t44                1.23615e-05
x1.a_3868_4185.t29                 1.22464e-05
x1.ibias.t36                          0.586827
x1.a_3329_8823.t18                  1.3184e-05
x1.vss.t169                        1.21171e-05
x1.vss.t168                        1.21171e-05
x1.a_n1962_4406.t43                1.23589e-05
x1.ibias.t37                          0.586827
x1.vout.t52                        1.41838e-05
x1.vout.t25                        1.41835e-05
x1.ibias.t38                          0.586827
x1.a_n1962_4406.t42                1.23616e-05
x1.vss.t167                        1.21171e-05
x1.vss.t166                        1.21171e-05
x1.vout.t26                        1.41837e-05
x1.ibias.t39                          0.586827
x1.a_n1962_4406.t41                 1.2359e-05
x1.vss.t165                        1.21171e-05
x1.vss.t164                        1.21171e-05
x1.a_n1962_4406.t75                 1.2361e-05
x1.vss.t288                        1.21367e-05
x1.en.t23                                  1.7
x1.a_n1962_4406.t111               1.23578e-05
x1.a_n935_8875.t8                      1.33591
x1.vn.t7                           1.42474e-05
x1.a_3329_8823.t46                 1.31964e-05
x1.vss.t3                          1.38412e-05
x1.vdd.t81                                 1.7
x1.vdd.t80                                 1.7
x1.vss.t287                        1.21314e-05
x1.en.t24                                  1.7
x1.a_n1962_4406.t110               1.23558e-05
x1.vss.t286                        1.21275e-05
x1.en.t25                                  1.7
x1.a_n1962_4406.t109               1.23558e-05
x1.vdd.t106                                1.7
x1.a_n935_8875.t35                     1.33591
x1.a_n735_8972.t25                     1.33692
x1.vdd.t11                                 1.7
x1.a_n1962_4406.t40                1.23615e-05
x1.ibias.t40                          0.586827
x1.vout.t58                        1.41837e-05
x1.vss.t163                        1.22127e-05
x1.vss.t161                        1.22121e-05
x1.vss.t162                        1.43262e-05
x1.vdd.t25                                 1.7
x1.a_n735_8972.t35                     1.33692
x1.vout.t71                        1.42739e-05
x1.vss.t160                        1.21171e-05
x1.vss.t158                        1.21171e-05
x1.vss.t159                        1.21171e-05
x1.a_n1962_4406.t108               1.23577e-05
x1.en.t26                                  1.7
x1.vss.t285                        1.21314e-05
x1.a_3329_8823.t27                 1.31844e-05
x1.ibias.t41                          0.586827
x1.a_3868_4185.t28                 1.22437e-05
x1.a_n935_8875.t31                     1.33591
x1.a_n935_8875.t30                     1.33591
x1.vdd.t37                                 1.7
x1.a_n1962_4406.t39                1.23615e-05
x1.ibias.t42                          0.586827
x1.vout.t13                        1.41835e-05
x1.vout.t16                        1.41837e-05
x1.ibias.t43                          0.586827
x1.a_n1962_4406.t38                1.23589e-05
x1.a_n1962_4406.t37                 1.2359e-05
x1.ibias.t44                          0.586827
x1.vout.t22                         1.4184e-05
x1.a_n1962_4406.t107               1.23576e-05
x1.en.t27                                  1.7
x1.vss.t284                        1.21275e-05
x1.a_3329_8823.t0                  1.31842e-05
x1.ibias.t45                          0.586827
x1.a_3868_4185.t27                 1.22437e-05
x1.a_n735_8972.t18                     1.33692
x1.vp.t5                                     0
x1.a_3329_8823.t47                 1.31962e-05
x1.vss.t157                        1.22132e-05
x1.vss.t155                        1.22121e-05
x1.a_n735_8972.t4                      1.33692
x1.vss.t156                        1.41572e-05
x1.vout.t73                        1.42766e-05
x1.a_n735_8972.t36                     1.33692
x1.vdd.t27                                 1.7
x1.a_n1962_4406.t36                1.23589e-05
x1.ibias.t46                          0.586827
x1.vout.t39                        1.41836e-05
x1.a_n1962_4406.t106               1.23578e-05
x1.en.t28                                  1.7
x1.vss.t280                        1.21332e-05
x1.vss.t281                        1.21314e-05
x1.en.t29                                  1.7
x1.a_n1962_4406.t105               1.23578e-05
x1.vss.t283                        1.21275e-05
x1.en.t30                                  1.7
x1.a_n1962_4406.t104               1.23578e-05
x1.vss.t282                        0.000102949
x1.en.t31                                  1.7
x1.a_8862_4192.t22                  0.00135553
x1.a_3329_8823.t53                 1.31944e-05
x1.vss.t153                        1.22117e-05
x1.vss.t154                        1.22117e-05
x1.vss.t61                          1.3159e-05
x1.vout.t14                        1.41842e-05
x1.ibias.t47                          0.586827
x1.a_n1962_4406.t35                1.23588e-05
x1.vss.t152                        1.21171e-05
x1.vss.t151                        1.21171e-05
x1.a_n1962_4406.t74                1.23565e-05
x1.vout.t17                        1.41848e-05
x1.ibias.t48                          0.586827
x1.a_n1962_4406.t34                1.23588e-05
x1.vss.t150                        1.21171e-05
x1.vss.t149                        1.21171e-05
x1.vss.t279                        1.21331e-05
x1.en.t32                                  1.7
x1.a_n1962_4406.t103               1.23579e-05
x1.a_n1962_4406.t33                1.23636e-05
x1.ibias.t49                          0.586827
x1.vout.t50                        1.41855e-05
x1.a_3868_4185.t73                 1.22431e-05
x1.en.t33                                  1.7
x1.vss.t278                        1.21011e-05
x1.vss.t274                        1.21011e-05
x1.en.t34                                  1.7
x1.a_3868_4185.t72                 1.22422e-05
x1.vss.t277                         1.2101e-05
x1.en.t35                                  1.7
x1.a_3868_4185.t71                 1.22421e-05
x1.a_n935_8875.t29                     1.33591
x1.a_n935_8875.t28                     1.33591
x1.vdd.t29                                 1.7
x1.vdd.t79                                 1.7
x1.vdd.t78                                 1.7
x1.a_n1962_4406.t32                1.23636e-05
x1.ibias.t50                          0.586827
x1.vout.t29                        1.41855e-05
x1.a_8862_4192.t21                  0.00135545
x1.en.t36                                  1.7
x1.vss.t276                        7.76569e-05
x1.a_3868_4185.t70                 1.22431e-05
x1.en.t37                                  1.7
x1.vss.t275                         1.2101e-05
x1.vss.t148                        1.20915e-05
x1.vss.t147                        1.20915e-05
x1.a_3868_4185.t51                 1.22451e-05
x1.vdd.t22                                 1.7
x1.a_n935_8875.t26                     1.33591
x1.a_n935_8875.t27                     1.33591
x1.vdd.t0                                  1.7
x1.vout.t23                        1.41855e-05
x1.ibias.t51                          0.586827
x1.a_n1962_4406.t31                1.23636e-05
x1.vss.t273                        1.21011e-05
x1.en.t38                                  1.7
x1.a_3868_4185.t69                 1.22431e-05
x1.a_3868_4185.t50                 1.22426e-05
x1.vss.t145                        1.20915e-05
x1.vss.t146                        1.20915e-05
x1.vss.t144                        5.79376e-05
x1.vss.t142                        5.80818e-05
x1.vss.t143                        7.29044e-05
x1.a_3868_4185.t49                 1.22426e-05
x1.vss.t140                        1.20915e-05
x1.vss.t141                        1.20915e-05
x1.vss.t272                         1.2101e-05
x1.en.t39                                  1.7
x1.a_3868_4185.t68                 1.22431e-05
x1.vss.t271                        1.21349e-05
x1.en.t40                                  1.7
x1.a_n1962_4406.t102               1.23578e-05
x1.a_3868_4185.t26                 1.22453e-05
x1.ibias.t52                          0.586827
x1.a_3329_8823.t14                 1.31841e-05
x1.a_3868_4185.t25                 1.22453e-05
x1.ibias.t53                          0.586827
x1.a_3329_8823.t24                 1.31843e-05
x1.a_3329_8823.t67                 1.31959e-05
x1.vn.t8                           1.42474e-05
x1.a_n935_8875.t7                      1.33591
x1.vss.t217                        1.38357e-05
x1.a_3868_4185.t24                 1.22437e-05
x1.ibias.t54                          0.586827
x1.a_3329_8823.t34                 1.31844e-05
x1.vdd.t77                                 1.7
x1.vdd.t76                                 1.7
x1.a_n1962_4406.t73                 1.2361e-05
x1.vss.t138                        1.21171e-05
x1.vss.t139                        1.21171e-05
x1.a_n1962_4406.t72                 1.2361e-05
x1.vss.t136                        1.21171e-05
x1.vss.t137                        1.21171e-05
x1.ibias.t3                           0.586708
x1.ibias.t2                           0.586819
x1.a_8862_4192.t2                   0.00158685
x1.vss.t216                        5.60909e-05
x1.vss.t270                        7.57813e-05
x1.en.t41                                  1.7
x1.a_8862_4192.t20                   0.0013559
x1.a_3868_4185.t23                 1.22437e-05
x1.ibias.t55                          0.586827
x1.a_3329_8823.t5                  1.31842e-05
x1.a_3329_8823.t9                  1.31843e-05
x1.ibias.t56                          0.586827
x1.a_3868_4185.t22                 1.22437e-05
x1.a_n1962_4406.t101               1.23577e-05
x1.en.t42                                  1.7
x1.vss.t269                        1.21312e-05
x1.a_n1962_4406.t100               1.23577e-05
x1.en.t43                                  1.7
x1.vss.t268                        1.21274e-05
x1.a_3329_8823.t13                 1.31841e-05
x1.ibias.t57                          0.586827
x1.a_3868_4185.t21                 1.22437e-05
x1.vdd.t75                                 1.7
x1.vdd.t73                                 1.7
x1.vdd.t74                                 1.7
x1.vdd.t40                                 1.7
x1.vss.t267                        9.25237e-05
x1.en.t44                                  1.7
x1.a_8862_4192.t19                  0.00135577
x1.a_8862_4192.t18                  0.00135598
x1.en.t45                                  1.7
x1.vss.t266                        0.000103844
x1.vdd.t101                                1.7
x1.a_n735_8972.t37                     1.33692
x1.vout.t83                        1.42759e-05
x1.a_n1962_4406.t30                1.23591e-05
x1.ibias.t58                          0.586827
x1.vout.t55                        1.41835e-05
x1.a_8862_4192.t1                   0.00158685
x1.ibias.t0                           0.586817
x1.ibias.t1                           0.586614
x1.a_3329_8823.t1                   1.3184e-05
x1.ibias.t59                          0.586827
x1.a_3868_4185.t20                 1.22454e-05
x1.vdd.t109                                1.7
x1.a_n935_8875.t36                     1.33591
x1.a_n735_8972.t26                     1.33692
x1.a_8862_4192.t17                  0.00135572
x1.en.t46                                  1.7
x1.vss.t265                         7.2989e-05
x1.vss.t135                        5.55062e-05
x1.vss.t133                         5.5404e-05
x1.vss.t134                        7.00117e-05
x1.vout.t81                        1.42747e-05
x1.a_n735_8972.t38                     1.33692
x1.vdd.t99                                 1.7
x1.vss.t128                        1.20915e-05
x1.vss.t127                        1.20915e-05
x1.a_3868_4185.t48                 1.22425e-05
x1.a_3868_4185.t47                 1.22452e-05
x1.vss.t131                        1.20915e-05
x1.vss.t132                        1.20915e-05
x1.a_n935_8875.t25                     1.33591
x1.a_n935_8875.t24                     1.33591
x1.vdd.t31                                 1.7
x1.a_3868_4185.t19                 1.22454e-05
x1.ibias.t60                          0.586827
x1.a_3329_8823.t25                 1.31839e-05
x1.a_3329_8823.t52                 1.31943e-05
x1.vss.t125                        1.22116e-05
x1.vss.t126                        1.22116e-05
x1.vss.t248                        7.29541e-05
x1.en.t47                                  1.7
x1.a_8862_4192.t16                  0.00135525
x1.a_3329_8823.t6                  1.31839e-05
x1.ibias.t61                          0.586827
x1.a_3868_4185.t18                 1.22464e-05
x1.vdd.t72                                 1.7
x1.vdd.t70                                 1.7
x1.a_3868_4185.t67                 1.22431e-05
x1.en.t48                                  1.7
x1.vss.t264                        1.21008e-05
x1.vout.t63                        1.42763e-05
x1.a_n735_8972.t39                     1.33692
x1.vdd.t14                                 1.7
x1.vout.t68                        1.42735e-05
x1.a_n735_8972.t40                     1.33692
x1.vdd.t20                                 1.7
x1.vdd.t2                                  1.7
x1.a_n1962_4406.t99                1.23577e-05
x1.en.t49                                  1.7
x1.vss.t263                        1.21294e-05
x1.a_8862_4192.t15                   0.0013553
x1.en.t50                                  1.7
x1.vss.t262                        9.15927e-05
x1.vss.t124                        1.22121e-05
x1.vss.t123                        1.22121e-05
x1.a_3329_8823.t51                 1.31948e-05
x1.a_n1962_4406.t98                1.23577e-05
x1.en.t51                                  1.7
x1.vss.t261                        1.21254e-05
x1.vdd.t69                                 1.7
x1.vdd.t67                                 1.7
x1.vdd.t68                                 1.7
x1.a_3329_8823.t58                 1.31951e-05
x1.vp.t6                                     0
x1.a_n735_8972.t17                     1.33692
x1.vss.t122                        1.21171e-05
x1.vss.t121                        1.21171e-05
x1.a_n1962_4406.t71                 1.2361e-05
x1.a_3329_8823.t79                 1.31951e-05
x1.vn.t9                           1.42474e-05
x1.a_n935_8875.t6                      1.33591
x1.vout.t40                        1.41841e-05
x1.ibias.t62                          0.586827
x1.a_n1962_4406.t29                1.23614e-05
x1.a_n935_8875.t5                      1.33591
x1.vn.t10                          1.42474e-05
x1.a_3329_8823.t70                  1.3196e-05
x1.vdd.t66                                 1.7
x1.vdd.t64                                 1.7
x1.vdd.t65                                 1.7
x1.a_n735_8972.t5                      1.33692
x1.a_n935_8875.t37                     1.33591
x1.vdd.t28                                 1.7
x1.vout.t66                        1.42752e-05
x1.a_n735_8972.t41                     1.33692
x1.vdd.t18                                 1.7
x1.vss.t120                        1.21171e-05
x1.vss.t119                        1.21171e-05
x1.a_n1962_4406.t97                 1.2356e-05
x1.en.t52                                  1.7
x1.vss.t260                        1.21366e-05
x1.a_n1962_4406.t28                1.23588e-05
x1.ibias.t63                          0.586827
x1.vout.t15                        1.41841e-05
x1.vss.t118                        1.21171e-05
x1.vss.t117                        1.21171e-05
x1.vdd.t4                                  1.7
x1.a_n935_8875.t38                     1.33591
x1.a_n735_8972.t0                      1.33692
x1.a_n735_8972.t16                     1.33692
x1.vp.t7                                     0
x1.a_3329_8823.t74                 1.31965e-05
x1.a_3329_8823.t75                  1.3196e-05
x1.vp.t8                                     0
x1.a_n735_8972.t15                     1.33692
x1.a_n1962_4406.t96                 1.2358e-05
x1.en.t53                                  1.7
x1.vss.t259                        1.21383e-05
x1.vdd.t63                                 1.7
x1.vdd.t61                                 1.7
x1.vdd.t62                                 1.7
x1.vss.t116                        1.21171e-05
x1.vss.t115                        1.21171e-05
x1.a_n1962_4406.t70                1.23611e-05
x1.a_n1962_4406.t27                 1.2359e-05
x1.ibias.t64                          0.586827
x1.vout.t18                        1.41836e-05
x1.vss.t258                        1.21366e-05
x1.en.t54                                  1.7
x1.a_n1962_4406.t95                1.23578e-05
x1.vout.t10                         1.4184e-05
x1.ibias.t65                          0.586827
x1.a_n1962_4406.t26                 1.2359e-05
x1.a_n735_8972.t14                     1.33692
x1.vp.t9                                     0
x1.a_3329_8823.t78                 1.31948e-05
x1.a_3329_8823.t59                 1.31964e-05
x1.vp.t10                                    0
x1.a_n735_8972.t13                     1.33692
x1.a_n735_8972.t12                     1.33692
x1.vp.t11                                    0
x1.a_3329_8823.t69                 1.31947e-05
x1.a_n1962_4406.t69                1.23565e-05
x1.vss.t113                        1.21171e-05
x1.vss.t114                        1.21171e-05
x1.vss.t257                        1.21332e-05
x1.en.t55                                  1.7
x1.a_n1962_4406.t94                1.23577e-05
x1.a_n1962_4406.t68                 1.2361e-05
x1.vss.t111                        1.21171e-05
x1.vss.t112                        1.21171e-05
x1.vout.t51                        1.41835e-05
x1.ibias.t66                          0.586827
x1.a_n1962_4406.t25                1.23591e-05
x1.vout.t30                        1.41855e-05
x1.ibias.t67                          0.586827
x1.a_n1962_4406.t24                1.23636e-05
x1.vout.t24                        1.41855e-05
x1.ibias.t68                          0.586827
x1.a_n1962_4406.t23                1.23614e-05
x1.vss.t256                        0.000104322
x1.en.t56                                  1.7
x1.a_8862_4192.t14                  0.00135691
x1.a_8862_4192.t13                  0.00135683
x1.en.t57                                  1.7
x1.vss.t255                          7.656e-05
x1.vdd.t21                                 1.7
x1.a_n935_8875.t22                     1.33591
x1.a_n935_8875.t23                     1.33591
x1.a_3329_8823.t50                 1.31945e-05
x1.vss.t109                        1.22117e-05
x1.vss.t110                        1.22117e-05
x1.vout.t56                        1.41835e-05
x1.ibias.t69                          0.586827
x1.a_n1962_4406.t22                1.23635e-05
x1.a_n1962_4406.t21                1.23615e-05
x1.ibias.t70                          0.586827
x1.vout.t20                        1.41841e-05
x1.a_3329_8823.t16                 1.31845e-05
x1.ibias.t71                          0.586827
x1.a_3868_4185.t17                 1.22464e-05
x1.vss.t108                        1.20915e-05
x1.vss.t107                        1.20915e-05
x1.a_3868_4185.t46                 1.22451e-05
x1.vout.t79                        1.42754e-05
x1.a_n735_8972.t42                     1.33692
x1.vdd.t38                                 1.7
x1.vout.t34                        1.41836e-05
x1.ibias.t72                          0.586827
x1.a_n1962_4406.t20                 1.2359e-05
x1.a_n1962_4406.t19                1.23615e-05
x1.ibias.t73                          0.586827
x1.vout.t11                        1.41847e-05
x1.vss.t106                        1.20915e-05
x1.vss.t105                        1.20915e-05
x1.a_3868_4185.t45                 1.22451e-05
x1.vss.t104                        1.22116e-05
x1.vss.t101                        1.22116e-05
x1.vss.t103                        1.22128e-05
x1.vss.t102                        1.30042e-05
x1.a_n1962_4406.t18                1.23589e-05
x1.ibias.t74                          0.586827
x1.vout.t31                         1.4184e-05
x1.vss.t100                        7.06596e-05
x1.vss.t99                         6.33212e-05
x1.vss.t254                        7.59808e-05
x1.en.t58                                  1.7
x1.a_8862_4192.t12                  0.00135543
x1.vout.t8                         1.41841e-05
x1.ibias.t75                          0.586827
x1.a_n1962_4406.t17                1.23589e-05
x1.a_n1962_4406.t16                 1.2359e-05
x1.ibias.t76                          0.586827
x1.vout.t32                        1.41845e-05
x1.a_n1962_4406.t15                 1.2359e-05
x1.ibias.t77                          0.586827
x1.vout.t4                         1.41851e-05
x1.a_3868_4185.t16                 1.22464e-05
x1.ibias.t78                          0.586827
x1.a_3329_8823.t21                 1.31845e-05
x1.vss.t98                         6.22999e-05
x1.vss.t97                         6.22986e-05
x1.ibias.t9                            0.58673
x1.a_n1962_4406.t93                1.23578e-05
x1.en.t59                                  1.7
x1.vss.t253                        1.21294e-05
x1.vout.t19                        1.41847e-05
x1.ibias.t79                          0.586827
x1.a_n1962_4406.t14                1.23588e-05
x1.a_n1962_4406.t92                1.23579e-05
x1.en.t60                                  1.7
x1.vss.t252                        1.21254e-05
x1.a_3868_4185.t15                 1.22437e-05
x1.ibias.t80                          0.586827
x1.a_3329_8823.t36                 1.31844e-05
x1.vss.t251                        9.30066e-05
x1.en.t61                                  1.7
x1.a_8862_4192.t11                  0.00135671
x1.vdd.t60                                 1.7
x1.vdd.t58                                 1.7
x1.vdd.t59                                 1.7
x1.a_n735_8972.t11                     1.33692
x1.vp.t12                                    0
x1.a_3329_8823.t40                 1.31958e-05
x1.vss.t250                        1.21294e-05
x1.en.t62                                  1.7
x1.a_n1962_4406.t91                1.23578e-05
x1.vss.t96                         1.21171e-05
x1.vss.t95                         1.21171e-05
x1.a_8862_4192.t10                  0.00135551
x1.en.t63                                  1.7
x1.vss.t249                        0.000102949
x1.a_3868_4185.t14                 1.22437e-05
x1.ibias.t81                          0.586827
x1.a_3329_8823.t32                 1.31842e-05
x1.vss.t247                        1.21254e-05
x1.en.t64                                  1.7
x1.a_n1962_4406.t90                1.23579e-05
x1.a_3329_8823.t23                 1.31845e-05
x1.ibias.t82                          0.586827
x1.a_3868_4185.t13                 1.22464e-05
x1.a_8862_4192.t9                   0.00135666
x1.en.t65                                  1.7
x1.vss.t246                        7.36751e-05
x1.vss.t245                        1.21008e-05
x1.en.t66                                  1.7
x1.a_3868_4185.t66                 1.22421e-05
x1.a_n735_8972.t1                      1.33692
x1.a_n935_8875.t39                     1.33591
x1.vdd.t9                                  1.7
x1.vdd.t35                                 1.7
x1.a_n735_8972.t43                     1.33692
x1.vout.t76                        1.42756e-05
x1.a_n1962_4406.t13                1.23589e-05
x1.ibias.t83                          0.586827
x1.vout.t43                        1.41838e-05
x1.a_3329_8823.t45                 1.31958e-05
x1.vn.t11                          1.42474e-05
x1.a_n935_8875.t4                      1.33591
x1.vout.t88                        1.42742e-05
x1.a_n735_8972.t44                     1.33692
x1.vdd.t108                                1.7
x1.vss.t244                        1.21312e-05
x1.en.t67                                  1.7
x1.a_n1962_4406.t89                1.23577e-05
x1.a_3868_4185.t12                 1.22464e-05
x1.ibias.t84                          0.586827
x1.a_3329_8823.t10                 1.31845e-05
x1.vss.t94                         1.20915e-05
x1.vss.t93                         1.20915e-05
x1.a_3868_4185.t44                 1.22452e-05
x1.a_3868_4185.t43                 1.22425e-05
x1.vss.t91                         1.20915e-05
x1.vss.t92                         1.20915e-05
x1.a_3329_8823.t7                  1.31841e-05
x1.ibias.t85                          0.586827
x1.a_3868_4185.t11                 1.22437e-05
x1.vdd.t10                                 1.7
x1.a_n935_8875.t40                     1.33591
x1.a_n735_8972.t2                      1.33692
x1.vss.t90                         1.22131e-05
x1.vss.t88                          1.2212e-05
x1.a_n935_8875.t17                     1.33591
x1.a_n935_8875.t3                      1.33591
x1.vn.t12                          1.42474e-05
x1.a_3329_8823.t57                 1.31947e-05
x1.vdd.t57                                 1.7
x1.vdd.t55                                 1.7
x1.vdd.t56                                 1.7
x1.vss.t243                        1.21274e-05
x1.en.t68                                  1.7
x1.a_n1962_4406.t88                1.23577e-05
x1.a_3868_4185.t10                 1.22454e-05
x1.ibias.t86                          0.586827
x1.a_3329_8823.t3                   1.3184e-05
x1.vss.t87                          6.7831e-05
x1.vss.t86                         6.04801e-05
x1.vss.t242                        7.35348e-05
x1.en.t69                                  1.7
x1.a_8862_4192.t8                   0.00135573
x1.a_3329_8823.t29                  1.3184e-05
x1.ibias.t87                          0.586827
x1.a_3868_4185.t9                  1.22437e-05
x1.vout.t74                        1.42756e-05
x1.a_n735_8972.t45                     1.33692
x1.vdd.t32                                 1.7
x1.a_3868_4185.t65                 1.22431e-05
x1.en.t70                                  1.7
x1.vss.t241                        1.21009e-05
x1.vdd.t102                                1.7
x1.a_n735_8972.t46                     1.33692
x1.vout.t84                        1.42735e-05
x1.a_8862_4192.t7                   0.00135578
x1.en.t71                                  1.7
x1.vss.t240                        9.25237e-05
x1.vss.t239                        1.21009e-05
x1.en.t72                                  1.7
x1.a_3868_4185.t64                 1.22431e-05
x1.vdd.t12                                 1.7
x1.a_n935_8875.t20                     1.33591
x1.a_n935_8875.t21                     1.33591
x1.a_n935_8875.t2                      1.33591
x1.vn.t13                          1.42474e-05
x1.a_3329_8823.t68                 1.31966e-05
x1.vdd.t54                                 1.7
x1.vdd.t53                                 1.7
x1.a_n935_8875.t16                     1.33591
x1.vss.t83                         1.22118e-05
x1.vss.t85                         1.22134e-05
x1.vss.t82                         1.21171e-05
x1.vss.t81                         1.21171e-05
x1.vout.t85                        1.42739e-05
x1.a_n735_8972.t47                     1.33692
x1.vdd.t104                                1.7
x1.vss.t80                         1.21171e-05
x1.vss.t79                         1.21171e-05
x1.a_n1962_4406.t67                1.23566e-05
x1.a_3868_4185.t8                  1.22437e-05
x1.ibias.t88                          0.586827
x1.a_3329_8823.t26                 1.31841e-05
x1.vss.t78                         1.21171e-05
x1.vss.t76                         1.21171e-05
x1.vdd.t107                                1.7
x1.a_n735_8972.t48                     1.33692
x1.vout.t87                        1.42752e-05
x1.a_n1962_4406.t66                 1.2361e-05
x1.vss.t74                         1.21171e-05
x1.vss.t75                         1.21171e-05
x1.vss.t73                         1.22118e-05
x1.vss.t71                         1.22118e-05
x1.vss.t72                         1.22131e-05
x1.vdd.t24                                 1.7
x1.a_n735_8972.t49                     1.33692
x1.vout.t70                        1.42755e-05
x1.vss.t238                        1.21383e-05
x1.en.t73                                  1.7
x1.a_n1962_4406.t87                1.23579e-05
x1.vss.t70                         1.21171e-05
x1.vss.t68                         1.21171e-05
x1.vss.t69                         1.21171e-05
x1.vout.t72                        1.42727e-05
x1.a_n735_8972.t50                     1.33692
x1.vdd.t26                                 1.7
x1.vout.t41                        1.41836e-05
x1.ibias.t89                          0.586827
x1.a_n1962_4406.t12                1.23615e-05
x1.a_n1962_4406.t65                 1.2361e-05
x1.vss.t66                         1.21171e-05
x1.vss.t67                         1.21171e-05
x1.a_n1962_4406.t86                1.23579e-05
x1.en.t74                                  1.7
x1.vss.t237                         1.2135e-05
x1.vss.t65                         1.22121e-05
x1.vss.t63                         1.22121e-05
x1.a_3329_8823.t49                 1.31948e-05
x1.a_3329_8823.t48                 1.31944e-05
x1.vss.t60                         1.22117e-05
x1.vss.t62                         1.22117e-05
x1.a_n1962_4406.t11                 1.2359e-05
x1.ibias.t90                          0.586827
x1.vout.t47                        1.41838e-05
x1.vss.t59                         1.21171e-05
x1.vss.t58                         1.21171e-05
x1.a_n1962_4406.t64                 1.2361e-05
x1.vdd.t1                                  1.7
x1.a_n935_8875.t18                     1.33591
x1.a_n935_8875.t19                     1.33591
x1.a_n735_8972.t10                     1.33692
x1.vp.t13                                    0
x1.a_3329_8823.t41                 1.31963e-05
x1.a_n935_8875.t1                      1.33591
x1.vn.t14                          1.42474e-05
x1.a_3329_8823.t72                 1.31956e-05
x1.vss.t312                        1.36738e-05
x1.vdd.t52                                 1.7
x1.vdd.t50                                 1.7
x1.vdd.t51                                 1.7
x1.vout.t44                        1.41838e-05
x1.ibias.t91                          0.586827
x1.a_n1962_4406.t10                 1.2359e-05
x1.vss.t57                         1.21171e-05
x1.vss.t55                         1.21171e-05
x1.a_n1962_4406.t63                 1.2361e-05
x1.a_3329_8823.t30                 1.31844e-05
x1.ibias.t92                          0.586827
x1.a_3868_4185.t7                  1.22454e-05
x1.vdd.t49                                 1.7
x1.vdd.t46                                 1.7
x1.vdd.t48                                 1.7
x1.vout.t82                        1.42755e-05
x1.a_n735_8972.t51                     1.33692
x1.vdd.t100                                1.7
x1.vout.t36                        1.41845e-05
x1.ibias.t93                          0.586827
x1.a_n1962_4406.t9                 1.23614e-05
x1.vout.t37                        1.41852e-05
x1.ibias.t94                          0.586827
x1.a_n1962_4406.t8                 1.23615e-05
x1.a_3329_8823.t22                 1.31842e-05
x1.ibias.t95                          0.586827
x1.a_3868_4185.t6                  1.22454e-05
x1.a_3329_8823.t60                 1.31956e-05
x1.vp.t14                                    0
x1.a_n735_8972.t9                      1.33692
x1.vss.t213                        1.35039e-05
x1.a_n1962_4406.t85                1.23559e-05
x1.en.t75                                  1.7
x1.vss.t236                         1.2133e-05
x1.a_9909_7861.t1                      1.33692
x1.vout.t78                        1.42178e-05
x1.a_3868_4185.t42                 1.22452e-05
x1.vss.t53                         1.20915e-05
x1.vss.t54                         1.20915e-05
x1.vout.t80                        1.42759e-05
x1.a_n735_8972.t52                     1.33692
x1.vdd.t98                                 1.7
x1.a_n1962_4406.t7                 1.23588e-05
x1.ibias.t96                          0.586827
x1.vout.t12                        1.41845e-05
x1.a_n1962_4406.t6                 1.23588e-05
x1.ibias.t97                          0.586827
x1.vout.t5                         1.41852e-05
x1.a_3868_4185.t63                 1.22421e-05
x1.en.t76                                  1.7
x1.vss.t235                         1.2101e-05
x1.vss.t234                         1.2101e-05
x1.en.t77                                  1.7
x1.a_3868_4185.t62                 1.22431e-05
x1.vss.t233                        1.21009e-05
x1.en.t78                                  1.7
x1.a_3868_4185.t61                 1.22431e-05
x1.a_3868_4185.t41                 1.22452e-05
x1.vss.t50                         1.20915e-05
x1.vss.t52                         1.20915e-05
x1.a_n735_8972.t6                      1.33692
x1.a_n935_8875.t41                     1.33591
x1.vdd.t34                                 1.7
x1.a_n735_8972.t3                      1.33692
x1.vss.t47                         1.22116e-05
x1.vss.t49                         1.22131e-05
x1.vss.t48                         1.33024e-05
x1.a_n1962_4406.t84                1.23579e-05
x1.en.t79                                  1.7
x1.vss.t223                        1.21383e-05
x1.vss.t232                         1.2133e-05
x1.en.t80                                  1.7
x1.a_n1962_4406.t83                1.23578e-05
x1.vout.t1                         1.41845e-05
x1.ibias.t98                          0.586827
x1.a_n1962_4406.t5                 1.23589e-05
x1.vss.t46                         1.21171e-05
x1.vss.t44                         1.21171e-05
x1.vss.t43                         7.08577e-05
x1.vss.t42                         6.35084e-05
x1.a_3868_4185.t60                 1.22421e-05
x1.en.t81                                  1.7
x1.vss.t231                         1.2101e-05
x1.a_3329_8823.t76                 1.31962e-05
x1.vp.t15                                    0
x1.a_n735_8972.t8                      1.33692
x1.a_n1962_4406.t62                1.23565e-05
x1.vss.t40                         1.21171e-05
x1.vss.t41                         1.21171e-05
x1.vss.t228                        1.21294e-05
x1.en.t82                                  1.7
x1.a_n1962_4406.t82                1.23576e-05
x1.vout.t7                         1.41851e-05
x1.ibias.t99                          0.586827
x1.a_n1962_4406.t4                  1.2359e-05
x1.a_n1962_4406.t61                1.23564e-05
x1.vss.t37                         1.21171e-05
x1.vss.t39                         1.21171e-05
x1.vss.t230                        1.21254e-05
x1.en.t83                                  1.7
x1.a_n1962_4406.t81                1.23576e-05
x1.vss.t229                         1.2101e-05
x1.en.t84                                  1.7
x1.a_3868_4185.t59                 1.22431e-05
x1.vss.t227                        7.55045e-05
x1.en.t85                                  1.7
x1.a_8862_4192.t6                   0.00135682
x1.vss.t226                         1.2101e-05
x1.en.t86                                  1.7
x1.a_3868_4185.t58                 1.22431e-05
x1.vss.t36                         1.21171e-05
x1.vss.t35                         1.21171e-05
x1.a_3868_4185.t5                  1.22437e-05
x1.ibias.t100                         0.586827
x1.a_3329_8823.t15                 1.31843e-05
x1.a_3868_4185.t4                  1.22437e-05
x1.ibias.t101                         0.586827
x1.a_3329_8823.t37                 1.31841e-05
x1.a_n1962_4406.t3                 1.23635e-05
x1.ibias.t102                         0.586827
x1.vout.t48                        1.41835e-05
x1.a_8862_4192.t5                    0.0013569
x1.en.t87                                  1.7
x1.vss.t225                        0.000104322
x1.vout.t60                        1.42748e-05
x1.a_n735_8972.t53                     1.33692
x1.vdd.t3                                  1.7
x1.vdd.t6                                  1.7
x1.a_n735_8972.t54                     1.33692
x1.vout.t61                        1.42742e-05
x1.a_n1962_4406.t80                1.23579e-05
x1.en.t88                                  1.7
x1.vss.t224                        1.21367e-05
x1.a_3329_8823.t33                 1.31843e-05
x1.ibias.t103                         0.586827
x1.a_3868_4185.t3                  1.22437e-05
x1.ibias.t8                           0.586725
x1.vss.t33                         5.67421e-05
x1.vss.t34                         5.67434e-05
x1.vss.t32                         5.86495e-05
x1.vss.t29                         5.87008e-05
x1.vss.t31                         7.34145e-05
x1.vout.t33                         1.4184e-05
x1.ibias.t104                         0.586827
x1.a_n1962_4406.t2                 1.23589e-05
x1.a_3329_8823.t20                 1.31841e-05
x1.ibias.t105                         0.586827
x1.a_3868_4185.t2                  1.22437e-05
x1.vss.t28                         1.20915e-05
x1.vss.t26                         1.20915e-05
x1.a_3868_4185.t40                 1.22451e-05
x1.vdd.t45                                 1.7
x1.vdd.t43                                 1.7
x1.vdd.t42                                 1.7
x1.vdd.t39                                 1.7
x1.vdd.t41                                 1.7
x1.a_3868_4185.t1                  1.22464e-05
x1.ibias.t106                         0.586827
x1.a_3329_8823.t31                 1.31845e-05
x1.a_3868_4185.t57                 1.22431e-05
x1.en.t89                                  1.7
x1.vss.t222                        1.21011e-05
x1.a_3329_8823.t19                  1.3184e-05
x1.ibias.t107                         0.586827
x1.a_3868_4185.t0                  1.22464e-05
x1.a_3868_4185.t56                 1.22431e-05
x1.en.t90                                  1.7
x1.vss.t221                         1.2101e-05
x1.a_n1962_4406.t1                 1.23588e-05
x1.ibias.t108                         0.586827
x1.vout.t27                        1.41844e-05
x1.vss.t25                         1.21171e-05
x1.vss.t24                         1.21171e-05
x1.a_n1962_4406.t60                 1.2361e-05
x1.vss.t23                         6.84096e-05
x1.vss.t21                         6.10593e-05
x1.vss.t220                        7.40138e-05
x1.en.t91                                  1.7
x1.a_8862_4192.t4                   0.00135666
x1.a_n935_8875.t0                      1.33591
x1.vn.t15                          1.42474e-05
x1.a_3329_8823.t44                 1.31962e-05
x1.a_n1962_4406.t0                 1.23615e-05
x1.ibias.t109                         0.586827
x1.vout.t59                        1.41851e-05
x1.en.n0                                   1.7
x1.en.n3                                   1.7
x1.en.n7                                   1.7
x1.en.n11                                  1.7
x1.en.n15                                  1.7
x1.en.n38                                  1.7
x1.en.n41                                  1.7
x1.en.n44                                  1.7
x1.en.n50                                  1.7
x1.en.n56                                  1.7
x1.en.n62                                  1.7
x1.en.n68                                  1.7
x1.en.n74                                  1.7
x1.en.n80                                  1.7
x1.en.n19                                  1.7
x1.en.n22                                  1.7
x1.en.n26                                  1.7
x1.en.n30                                  1.7
x1.en.n34                                  1.7
x1.en.n87                                  1.7
x1.en.n89                                  1.7
x1.en.n88                                  1.7
x1.en.n2                                   1.7
x1.en.n1                                   1.7
x1.en.n5                                   1.7
x1.en.n4                                   1.7
x1.en.n9                                   1.7
x1.en.n8                                   1.7
x1.en.n13                                  1.7
x1.en.n12                                  1.7
x1.en.n17                                  1.7
x1.en.n16                                  1.7
x1.en.n39                                  1.7
x1.en.n40                                  1.7
x1.en.n42                                  1.7
x1.en.n43                                  1.7
x1.en.n45                                  1.7
x1.en.n46                                  1.7
x1.en.n47                                  1.7
x1.en.n48                                  1.7
x1.en.n51                                  1.7
x1.en.n52                                  1.7
x1.en.n53                                  1.7
x1.en.n54                                  1.7
x1.en.n57                                  1.7
x1.en.n58                                  1.7
x1.en.n59                                  1.7
x1.en.n60                                  1.7
x1.en.n63                                  1.7
x1.en.n64                                  1.7
x1.en.n65                                  1.7
x1.en.n66                                  1.7
x1.en.n69                                  1.7
x1.en.n70                                  1.7
x1.en.n71                                  1.7
x1.en.n72                                  1.7
x1.en.n75                                  1.7
x1.en.n76                                  1.7
x1.en.n77                                  1.7
x1.en.n78                                  1.7
x1.en.n81                                  1.7
x1.en.n82                                  1.7
x1.en.n20                                  1.7
x1.en.n21                                  1.7
x1.en.n23                                  1.7
x1.en.n24                                  1.7
x1.en.n27                                  1.7
x1.en.n28                                  1.7
x1.en.n31                                  1.7
x1.en.n32                                  1.7
x1.en.n35                                  1.7
x1.en.n36                                  1.7
x1.en.n84                                  1.7
x1.en.n83                                  1.7
x1.en.n90                                  1.7
x1.en.n49                                  1.7
x1.en.n25                                  1.7
x1.en.n29                                  1.7
x1.en.n37                                  1.7
x1.en.n6                                   1.7
x1.en.n61                                  1.7
x1.en.n73                                  1.7
x1.en.n10                                  1.7
x1.en.n14                                  1.7
x1.en.n18                                  1.7
x1.en.n33                                  1.7
x1.en.n55                                  1.7
x1.en.n67                                  1.7
x1.en.n79                                  1.7
x1.en.n86                                  1.7
x1.en.n85                                  1.7
x1.vss.n1977                       1.42976e-05
x1.vss.n1888                       5.86336e-05
x1.vss.n2092                       1.29134e-05
x1.vss.n1496                       1.22301e-05
x1.vss.n2383                       5.84287e-05
x1.vss.n123                        5.88157e-05
x1.vss.n1376                       1.22289e-05
x1.vss.n719                        1.22295e-05
x1.vss.n1211                       1.22048e-05
x1.vss.n825                         1.2197e-05
x1.vss.n2192                       1.43095e-05
x1.vss.n243                        1.43902e-05
x1.vss.n2109                       1.27563e-05
x1.vss.n668                        1.25903e-05
x1.vss.n2129                       1.35132e-05
x1.vss.n317                        1.34336e-05
x1.vss.n661                        1.34307e-05
x1.vss.n314                        1.35088e-05
x1.vss.n2337                       4.98562e-05
x1.vss.n165                        4.89533e-05
x1.vss.n1494                       1.22295e-05
x1.vss.n722                        1.22289e-05
x1.vss.n1905                       1.42165e-05
x1.vss.n1529                       1.41262e-05
x1.vss.n187                        4.90033e-05
x1.vss.n167                        4.99069e-05
x1.vss.n2224                       1.59975e-05
x1.vss.n213                        1.63464e-05
x1.vss.n590                         1.4871e-05
x1.vss.n211                        1.49692e-05
x1.vss.n1207                        1.2236e-05
x1.vss.n826                        1.22421e-05
x1.vss.n2090                       1.30088e-05
x1.vss.n1499                       1.31117e-05
x1.vss.n1886                       5.87059e-05
x1.vss.n1534                       5.87466e-05
x1.vss.n1879                       5.87059e-05
x1.vss.n1878                       5.87466e-05
x1.vss.n1639                       5.78642e-05
x1.vss.n127                        5.74391e-05
x1.vss.n524                        1.66003e-05
x1.vss.n523                        1.65905e-05
x1.vss.n568                        1.61734e-05
x1.vss.n567                          1.629e-05
x1.vss.n1663                       5.83426e-05
x1.vss.n1662                        5.8314e-05
x1.vss.n1707                       5.86584e-05
x1.vss.n1706                        5.8599e-05
x1.vss.n2335                       4.81057e-05
x1.vss.n2226                       1.66632e-05
x1.vss.n164                        4.96252e-05
x1.vss.n2333                       4.87986e-05
x1.vss.n2332                       4.94205e-05
x1.vss.n2331                       4.92431e-05
x1.vss.n2227                       4.86918e-05
x1.vss.n2330                       4.90897e-05
x1.vss.n2329                       4.86084e-05
x1.vss.n2328                       4.89574e-05
x1.vss.n2327                       4.85394e-05
x1.vss.n2326                       4.84808e-05
x1.vss.n2325                       4.88434e-05
x1.vss.n2324                       4.87452e-05
x1.vss.n2323                       4.84308e-05
x1.vss.n2322                       4.83878e-05
x1.vss.n2321                       4.86608e-05
x1.vss.n2320                       4.85884e-05
x1.vss.n2319                        4.8351e-05
x1.vss.n2318                       4.83195e-05
x1.vss.n2317                       4.85264e-05
x1.vss.n2316                       4.84734e-05
x1.vss.n2315                       4.82925e-05
x1.vss.n2314                       4.82696e-05
x1.vss.n2313                       4.84283e-05
x1.vss.n2312                       4.83901e-05
x1.vss.n2311                       4.82502e-05
x1.vss.n2310                        4.8234e-05
x1.vss.n2309                       4.83581e-05
x1.vss.n2308                       4.83315e-05
x1.vss.n2307                       4.82205e-05
x1.vss.n2306                       4.82094e-05
x1.vss.n2305                       4.83098e-05
x1.vss.n2304                       4.82925e-05
x1.vss.n2303                       4.82006e-05
x1.vss.n2302                       4.81939e-05
x1.vss.n2301                       4.82792e-05
x1.vss.n2300                       4.82696e-05
x1.vss.n2299                        4.8189e-05
x1.vss.n2298                       4.81859e-05
x1.vss.n2297                       4.82635e-05
x1.vss.n2296                       4.82609e-05
x1.vss.n2295                       4.81846e-05
x1.vss.n2294                       4.81849e-05
x1.vss.n2293                       4.82615e-05
x1.vss.n2292                       4.82656e-05
x1.vss.n2291                        4.8187e-05
x1.vss.n2290                       4.81908e-05
x1.vss.n2289                        4.8273e-05
x1.vss.n2288                       4.82841e-05
x1.vss.n2287                       4.81964e-05
x1.vss.n2286                        4.8204e-05
x1.vss.n2285                        4.8299e-05
x1.vss.n2284                       4.83181e-05
x1.vss.n2283                       4.82137e-05
x1.vss.n2282                       4.82257e-05
x1.vss.n2281                       4.83418e-05
x1.vss.n2280                       4.83705e-05
x1.vss.n2279                       4.82403e-05
x1.vss.n2278                       4.82578e-05
x1.vss.n2277                       4.84049e-05
x1.vss.n2276                       4.84458e-05
x1.vss.n2275                       4.82785e-05
x1.vss.n2274                        4.8303e-05
x1.vss.n2273                        4.8494e-05
x1.vss.n2272                       4.85505e-05
x1.vss.n2271                       4.83317e-05
x1.vss.n2270                       4.83653e-05
x1.vss.n2269                       4.86166e-05
x1.vss.n2268                       4.86937e-05
x1.vss.n2267                       4.84045e-05
x1.vss.n2266                       4.84502e-05
x1.vss.n2265                       4.87835e-05
x1.vss.n2264                       4.88878e-05
x1.vss.n2263                       4.85034e-05
x1.vss.n2262                       4.85656e-05
x1.vss.n2261                        4.9009e-05
x1.vss.n2260                       4.91496e-05
x1.vss.n2259                       4.86389e-05
x1.vss.n2258                       4.87274e-05
x1.vss.n2257                       4.93125e-05
x1.vss.n2256                        4.9501e-05
x1.vss.n2255                       4.88404e-05
x1.vss.n2254                       4.97185e-05
x1.vss.n2253                       5.05049e-05
x1.vss.n2336                       4.91871e-05
x1.vss.n2252                       5.07798e-05
x1.vss.n2251                       5.02748e-05
x1.vss.n166                        4.97389e-05
x1.vss.n2250                       5.10768e-05
x1.vss.n162                        5.06634e-05
x1.vss.n2342                       5.02464e-05
x1.vss.n2249                       5.13919e-05
x1.vss.n161                        5.10544e-05
x1.vss.n2343                       5.07203e-05
x1.vss.n2248                       5.17218e-05
x1.vss.n160                         5.1443e-05
x1.vss.n2344                       5.11686e-05
x1.vss.n2247                       5.20638e-05
x1.vss.n2246                       5.18286e-05
x1.vss.n159                         5.1597e-05
x1.vss.n2245                       5.24162e-05
x1.vss.n155                        5.22119e-05
x1.vss.n2350                         5.201e-05
x1.vss.n2244                       5.27775e-05
x1.vss.n154                        5.25936e-05
x1.vss.n2351                       5.24108e-05
x1.vss.n2243                       5.31468e-05
x1.vss.n153                        5.29745e-05
x1.vss.n2352                       5.28022e-05
x1.vss.n2242                       5.35237e-05
x1.vss.n2241                       5.33554e-05
x1.vss.n152                        5.31862e-05
x1.vss.n2240                       5.39079e-05
x1.vss.n148                        5.37369e-05
x1.vss.n2358                       5.35641e-05
x1.vss.n2239                       5.42997e-05
x1.vss.n147                        5.41197e-05
x1.vss.n2359                        5.3937e-05
x1.vss.n2238                       5.46993e-05
x1.vss.n146                        5.45043e-05
x1.vss.n2360                       5.43057e-05
x1.vss.n2237                       5.51074e-05
x1.vss.n2236                       5.48914e-05
x1.vss.n145                        5.46709e-05
x1.vss.n2235                        5.5525e-05
x1.vss.n141                        5.52814e-05
x1.vss.n2366                       5.50325e-05
x1.vss.n2234                       5.59533e-05
x1.vss.n140                        5.56751e-05
x1.vss.n2367                       5.53907e-05
x1.vss.n2233                       5.63937e-05
x1.vss.n139                        5.60731e-05
x1.vss.n2368                       5.57454e-05
x1.vss.n2232                       5.68481e-05
x1.vss.n2231                       5.64758e-05
x1.vss.n135                        5.60961e-05
x1.vss.n2230                       5.73189e-05
x1.vss.n134                        5.68834e-05
x1.vss.n2374                        5.6442e-05
x1.vss.n2229                       5.78087e-05
x1.vss.n133                        5.72951e-05
x1.vss.n2375                       5.67823e-05
x1.vss.n2228                        5.8321e-05
x1.vss.n132                        5.77062e-05
x1.vss.n2376                       5.71158e-05
x1.vss.n124                         5.8101e-05
x1.vss.n122                        5.88601e-05
x1.vss.n126                        5.74414e-05
x1.vss.n2384                       5.94325e-05
x1.vss.n2382                       5.77582e-05
x1.vss.n121                        5.93764e-05
x1.vss.n1715                       5.88096e-05
x1.vss.n1714                        5.9247e-05
x1.vss.n1713                       5.91367e-05
x1.vss.n1638                       5.87732e-05
x1.vss.n1712                       5.90424e-05
x1.vss.n1711                       5.87317e-05
x1.vss.n1710                       5.86928e-05
x1.vss.n1709                       5.89616e-05
x1.vss.n1708                       5.88926e-05
x1.vss.n1705                       5.87752e-05
x1.vss.n1704                       5.87242e-05
x1.vss.n1703                       5.85732e-05
x1.vss.n1702                       5.85506e-05
x1.vss.n1701                       5.86797e-05
x1.vss.n1700                        5.8641e-05
x1.vss.n1699                       5.85309e-05
x1.vss.n1698                       5.85137e-05
x1.vss.n1697                        5.8607e-05
x1.vss.n1696                       5.85771e-05
x1.vss.n1695                       5.84985e-05
x1.vss.n1694                       5.84851e-05
x1.vss.n1693                       5.85507e-05
x1.vss.n1692                       5.85272e-05
x1.vss.n1691                       5.84731e-05
x1.vss.n1690                       5.84623e-05
x1.vss.n1689                        5.8506e-05
x1.vss.n1688                       5.84867e-05
x1.vss.n1687                       5.84525e-05
x1.vss.n1686                       5.84435e-05
x1.vss.n1685                        5.8469e-05
x1.vss.n1684                       5.84523e-05
x1.vss.n1683                        5.8435e-05
x1.vss.n1682                        5.8427e-05
x1.vss.n1681                       5.84364e-05
x1.vss.n1680                       5.84209e-05
x1.vss.n1679                       5.84191e-05
x1.vss.n1678                       5.84113e-05
x1.vss.n1677                       5.84055e-05
x1.vss.n1676                       5.83898e-05
x1.vss.n1675                       5.84033e-05
x1.vss.n1674                        5.8395e-05
x1.vss.n1673                       5.83736e-05
x1.vss.n1672                       5.83564e-05
x1.vss.n1671                       5.83863e-05
x1.vss.n1670                       5.83769e-05
x1.vss.n1669                       5.83379e-05
x1.vss.n1668                       5.83176e-05
x1.vss.n1667                       5.83666e-05
x1.vss.n1666                       5.83553e-05
x1.vss.n1665                       5.82953e-05
x1.vss.n1664                       5.82703e-05
x1.vss.n1661                        5.8214e-05
x1.vss.n1660                       5.81815e-05
x1.vss.n1659                       5.82974e-05
x1.vss.n1658                       5.82783e-05
x1.vss.n1657                       5.81439e-05
x1.vss.n1656                       5.81004e-05
x1.vss.n1655                       5.82562e-05
x1.vss.n1654                       5.82307e-05
x1.vss.n1653                       5.80501e-05
x1.vss.n1652                       5.79919e-05
x1.vss.n1651                       5.82011e-05
x1.vss.n1650                       5.81668e-05
x1.vss.n1649                       5.79246e-05
x1.vss.n1648                       5.78466e-05
x1.vss.n1647                       5.81269e-05
x1.vss.n1646                       5.80803e-05
x1.vss.n1645                       5.77564e-05
x1.vss.n1644                        5.7652e-05
x1.vss.n1643                       5.80249e-05
x1.vss.n1642                       5.79565e-05
x1.vss.n1641                       5.75313e-05
x1.vss.n1640                        5.7392e-05
x1.vss.n129                        5.69286e-05
x1.vss.n1718                       5.80485e-05
x1.vss.n2381                       5.72258e-05
x1.vss.n2380                       5.67463e-05
x1.vss.n2379                        5.6543e-05
x1.vss.n128                        5.69769e-05
x1.vss.n2378                       5.63207e-05
x1.vss.n2377                       5.67074e-05
x1.vss.n131                        5.64232e-05
x1.vss.n130                        5.60814e-05
x1.vss.n2373                       5.61274e-05
x1.vss.n2372                       5.58273e-05
x1.vss.n2371                         5.556e-05
x1.vss.n136                        5.58219e-05
x1.vss.n2370                       5.52812e-05
x1.vss.n2369                        5.5508e-05
x1.vss.n138                         5.5187e-05
x1.vss.n137                        5.49925e-05
x1.vss.n2365                       5.48599e-05
x1.vss.n2364                       5.46953e-05
x1.vss.n2363                       5.43909e-05
x1.vss.n142                        5.45273e-05
x1.vss.n2362                       5.40805e-05
x1.vss.n2361                       5.41899e-05
x1.vss.n144                        5.38482e-05
x1.vss.n143                        5.37654e-05
x1.vss.n2357                       5.35025e-05
x1.vss.n2356                       5.34466e-05
x1.vss.n2355                       5.31254e-05
x1.vss.n149                         5.3153e-05
x1.vss.n2354                       5.28029e-05
x1.vss.n2353                       5.27998e-05
x1.vss.n151                        5.24427e-05
x1.vss.n150                        5.24806e-05
x1.vss.n2349                       5.20817e-05
x1.vss.n2348                         5.216e-05
x1.vss.n2347                       5.18428e-05
x1.vss.n156                        5.17163e-05
x1.vss.n2346                       5.15311e-05
x1.vss.n2345                       5.13461e-05
x1.vss.n158                        5.09709e-05
x1.vss.n157                        5.12275e-05
x1.vss.n2341                       5.05917e-05
x1.vss.n2340                       5.09351e-05
x1.vss.n2339                       5.06578e-05
x1.vss.n163                        5.02137e-05
x1.vss.n2338                       5.03999e-05
x1.vss.n1785                       5.94429e-05
x1.vss.n1617                        5.9053e-05
x1.vss.n1616                       5.87255e-05
x1.vss.n1784                       5.94476e-05
x1.vss.n1783                       5.90411e-05
x1.vss.n1782                       5.86798e-05
x1.vss.n1779                       5.90066e-05
x1.vss.n1778                       5.94429e-05
x1.vss.n1780                        5.8471e-05
x1.vss.n1777                       5.94361e-05
x1.vss.n1720                       5.89711e-05
x1.vss.n1719                       5.82077e-05
x1.vss.n1776                        5.9431e-05
x1.vss.n1775                       5.89526e-05
x1.vss.n125                        5.79273e-05
x1.vss.n1536                        5.8785e-05
x1.vss.n1531                       5.87017e-05
x1.vss.n1877                       5.87648e-05
x1.vss.n1538                       5.87933e-05
x1.vss.n1876                       5.87367e-05
x1.vss.n1721                       5.88029e-05
x1.vss.n1537                       5.87826e-05
x1.vss.n1539                       5.87642e-05
x1.vss.n1722                       5.88133e-05
x1.vss.n1543                       5.87992e-05
x1.vss.n1870                       5.87869e-05
x1.vss.n1723                       5.88244e-05
x1.vss.n1544                       5.88147e-05
x1.vss.n1869                       5.88063e-05
x1.vss.n1724                       5.88359e-05
x1.vss.n1545                       5.88292e-05
x1.vss.n1868                       5.88235e-05
x1.vss.n1726                       5.88477e-05
x1.vss.n1725                       5.88431e-05
x1.vss.n1546                       5.88392e-05
x1.vss.n1727                       5.88596e-05
x1.vss.n1550                       5.88565e-05
x1.vss.n1862                       5.88538e-05
x1.vss.n1728                       5.88717e-05
x1.vss.n1551                       5.88696e-05
x1.vss.n1861                       5.88678e-05
x1.vss.n1729                       5.88839e-05
x1.vss.n1552                       5.88825e-05
x1.vss.n1860                       5.88813e-05
x1.vss.n1731                       5.88962e-05
x1.vss.n1730                       5.88952e-05
x1.vss.n1553                       5.88944e-05
x1.vss.n1732                       5.89085e-05
x1.vss.n1557                       5.89079e-05
x1.vss.n1854                       5.89073e-05
x1.vss.n1733                       5.89209e-05
x1.vss.n1558                       5.89204e-05
x1.vss.n1853                         5.892e-05
x1.vss.n1734                       5.89332e-05
x1.vss.n1559                       5.89329e-05
x1.vss.n1852                       5.89327e-05
x1.vss.n1736                       5.89456e-05
x1.vss.n1735                       5.89454e-05
x1.vss.n1560                       5.89453e-05
x1.vss.n1737                        5.8958e-05
x1.vss.n1564                       5.89579e-05
x1.vss.n1846                       5.89578e-05
x1.vss.n1738                       5.89704e-05
x1.vss.n1565                       5.89703e-05
x1.vss.n1845                       5.89703e-05
x1.vss.n1739                       5.89828e-05
x1.vss.n1566                       5.89827e-05
x1.vss.n1844                       5.89827e-05
x1.vss.n1741                       5.89952e-05
x1.vss.n1740                       5.89952e-05
x1.vss.n1567                       5.89952e-05
x1.vss.n1742                       5.90076e-05
x1.vss.n1571                       5.90076e-05
x1.vss.n1838                       5.90076e-05
x1.vss.n1743                         5.902e-05
x1.vss.n1572                         5.902e-05
x1.vss.n1837                         5.902e-05
x1.vss.n1744                       5.90323e-05
x1.vss.n1573                       5.90324e-05
x1.vss.n1836                       5.90325e-05
x1.vss.n1746                       5.90447e-05
x1.vss.n1745                       5.90448e-05
x1.vss.n1574                       5.90449e-05
x1.vss.n1747                       5.90571e-05
x1.vss.n1578                       5.90572e-05
x1.vss.n1830                       5.90573e-05
x1.vss.n1748                       5.90695e-05
x1.vss.n1579                       5.90696e-05
x1.vss.n1829                       5.90697e-05
x1.vss.n1749                       5.90819e-05
x1.vss.n1580                       5.90819e-05
x1.vss.n1828                        5.9082e-05
x1.vss.n1751                       5.90943e-05
x1.vss.n1750                       5.90943e-05
x1.vss.n1581                       5.90944e-05
x1.vss.n1752                       5.91066e-05
x1.vss.n1585                       5.91066e-05
x1.vss.n1822                       5.91067e-05
x1.vss.n1753                        5.9119e-05
x1.vss.n1586                        5.9119e-05
x1.vss.n1821                        5.9119e-05
x1.vss.n1754                       5.91314e-05
x1.vss.n1587                       5.91313e-05
x1.vss.n1820                       5.91312e-05
x1.vss.n1756                       5.91437e-05
x1.vss.n1755                       5.91435e-05
x1.vss.n1588                       5.91433e-05
x1.vss.n1757                       5.91561e-05
[...]
 Reference value :  7.36482e-06
 Reference value :  7.38482e-06
 Reference value :  7.40482e-06
 Reference value :  7.42482e-06
 Reference value :  7.44482e-06
 Reference value :  7.46482e-06
 Reference value :  7.48482e-06
 Reference value :  7.50482e-06
 Reference value :  7.52482e-06
 Reference value :  7.54482e-06
 Reference value :  7.56482e-06
 Reference value :  7.58482e-06
 Reference value :  7.60482e-06
 Reference value :  7.62482e-06
 Reference value :  7.64482e-06
 Reference value :  7.66482e-06
 Reference value :  7.68482e-06
 Reference value :  7.70482e-06
 Reference value :  7.72482e-06
 Reference value :  7.74482e-06
 Reference value :  7.76482e-06
 Reference value :  7.78482e-06
 Reference value :  7.80482e-06
 Reference value :  7.82482e-06
 Reference value :  7.84482e-06
 Reference value :  7.86482e-06
 Reference value :  7.88482e-06
 Reference value :  7.90482e-06
 Reference value :  7.93482e-06
 Reference value :  7.96482e-06
 Reference value :  7.98482e-06
 Reference value :  8.00482e-06
 Reference value :  8.02482e-06
 Reference value :  8.04482e-06
 Reference value :  8.06482e-06
 Reference value :  8.08482e-06
 Reference value :  8.11482e-06
 Reference value :  8.14482e-06
 Reference value :  8.16482e-06
 Reference value :  8.18482e-06
 Reference value :  8.20482e-06
 Reference value :  8.22482e-06
 Reference value :  8.25482e-06
 Reference value :  8.28482e-06
 Reference value :  8.31482e-06
 Reference value :  8.33482e-06
 Reference value :  8.35482e-06
 Reference value :  8.37482e-06
 Reference value :  8.39482e-06
 Reference value :  8.41482e-06
 Reference value :  8.43482e-06
 Reference value :  8.45482e-06
 Reference value :  8.47482e-06
 Reference value :  8.49482e-06
 Reference value :  8.51482e-06
 Reference value :  8.53482e-06
 Reference value :  8.55482e-06
 Reference value :  8.57482e-06
 Reference value :  8.59482e-06
 Reference value :  8.62482e-06
 Reference value :  8.64482e-06
 Reference value :  8.66482e-06
 Reference value :  8.68482e-06
 Reference value :  8.70482e-06
 Reference value :  8.72482e-06
 Reference value :  8.74482e-06
 Reference value :  8.76482e-06
 Reference value :  8.78482e-06
 Reference value :  8.80482e-06
 Reference value :  8.82482e-06
 Reference value :  8.84482e-06
 Reference value :  8.86482e-06
 Reference value :  8.88482e-06
 Reference value :  8.90482e-06
 Reference value :  8.92482e-06
 Reference value :  8.94482e-06
 Reference value :  8.96482e-06
 Reference value :  8.98482e-06
 Reference value :  9.00482e-06
 Reference value :  9.02482e-06
 Reference value :  9.04482e-06
 Reference value :  9.06482e-06
 Reference value :  9.08482e-06
 Reference value :  9.10482e-06
 Reference value :  9.12482e-06
 Reference value :  9.14482e-06
 Reference value :  9.16482e-06
 Reference value :  9.18482e-06
 Reference value :  9.20482e-06
 Reference value :  9.22482e-06
 Reference value :  9.24482e-06
 Reference value :  9.26482e-06
 Reference value :  9.28482e-06
 Reference value :  9.30482e-06
 Reference value :  9.32482e-06
 Reference value :  9.34482e-06
 Reference value :  9.36482e-06
 Reference value :  9.38482e-06
 Reference value :  9.40482e-06
 Reference value :  9.42482e-06
 Reference value :  9.44482e-06
 Reference value :  9.46482e-06
 Reference value :  9.48482e-06
 Reference value :  9.50482e-06
 Reference value :  9.52482e-06
 Reference value :  9.54482e-06
 Reference value :  9.57482e-06
 Reference value :  9.59482e-06
 Reference value :  9.62482e-06
 Reference value :  9.65482e-06
 Reference value :  9.67482e-06
 Reference value :  9.69482e-06
 Reference value :  9.72482e-06
 Reference value :  9.74482e-06
 Reference value :  9.76482e-06
 Reference value :  9.78482e-06
 Reference value :  9.81482e-06
 Reference value :  9.84482e-06
 Reference value :  9.86482e-06
 Reference value :  9.88482e-06
 Reference value :  9.90482e-06
 Reference value :  9.93482e-06
 Reference value :  9.96482e-06
 Reference value :  9.99482e-06
 Reference value :  1.00148e-05
 Reference value :  1.00348e-05
 Reference value :  1.00548e-05
 Reference value :  1.00748e-05
 Reference value :  1.00948e-05
 Reference value :  1.01148e-05
 Reference value :  1.01348e-05
 Reference value :  1.01548e-05
 Reference value :  1.01748e-05
 Reference value :  1.01948e-05
 Reference value :  1.02148e-05
 Reference value :  1.02348e-05
 Reference value :  1.02548e-05
 Reference value :  1.02748e-05
 Reference value :  1.02948e-05
 Reference value :  1.03148e-05
 Reference value :  1.03348e-05
 Reference value :  1.03548e-05
 Reference value :  1.03748e-05
 Reference value :  1.03948e-05
 Reference value :  1.04148e-05
 Reference value :  1.04348e-05
 Reference value :  1.04548e-05
 Reference value :  1.04748e-05
 Reference value :  1.04948e-05
 Reference value :  1.05148e-05
 Reference value :  1.05348e-05
 Reference value :  1.05548e-05
 Reference value :  1.05748e-05
 Reference value :  1.05848e-05
 Reference value :  1.05948e-05
 Reference value :  1.06148e-05
 Reference value :  1.06348e-05
 Reference value :  1.06548e-05
 Reference value :  1.06748e-05
 Reference value :  1.06948e-05
 Reference value :  1.07148e-05
 Reference value :  1.07348e-05
 Reference value :  1.07548e-05
 Reference value :  1.07748e-05
 Reference value :  1.07948e-05
 Reference value :  1.08148e-05
 Reference value :  1.08348e-05
 Reference value :  1.08548e-05
 Reference value :  1.08748e-05
 Reference value :  1.08948e-05
 Reference value :  1.09148e-05
 Reference value :  1.09348e-05
 Reference value :  1.09548e-05
 Reference value :  1.09748e-05
 Reference value :  1.09948e-05
 Reference value :  1.10148e-05
 Reference value :  1.10348e-05
 Reference value :  1.10548e-05
 Reference value :  1.10748e-05
 Reference value :  1.10948e-05
 Reference value :  1.11148e-05
 Reference value :  1.11348e-05
 Reference value :  1.11548e-05
 Reference value :  1.11748e-05
 Reference value :  1.11948e-05
 Reference value :  1.12148e-05
 Reference value :  1.12348e-05
 Reference value :  1.12548e-05
 Reference value :  1.12848e-05
 Reference value :  1.13048e-05
 Reference value :  1.13248e-05
 Reference value :  1.13448e-05
 Reference value :  1.13648e-05
 Reference value :  1.13848e-05
 Reference value :  1.14048e-05
 Reference value :  1.14248e-05
 Reference value :  1.14448e-05
 Reference value :  1.14648e-05
 Reference value :  1.14848e-05
 Reference value :  1.15048e-05
 Reference value :  1.15248e-05
 Reference value :  1.15448e-05
 Reference value :  1.15648e-05
 Reference value :  1.15848e-05
 Reference value :  1.16048e-05
 Reference value :  1.16248e-05
 Reference value :  1.16448e-05
 Reference value :  1.16648e-05
 Reference value :  1.16848e-05
 Reference value :  1.17048e-05
 Reference value :  1.17248e-05
 Reference value :  1.17448e-05
 Reference value :  1.17648e-05
 Reference value :  1.17848e-05
 Reference value :  1.18048e-05
 Reference value :  1.18248e-05
 Reference value :  1.18448e-05
 Reference value :  1.18648e-05
 Reference value :  1.18848e-05
 Reference value :  1.19048e-05
 Reference value :  1.19248e-05
 Reference value :  1.19448e-05
 Reference value :  1.19648e-05
 Reference value :  1.19848e-05
 Reference value :  1.20048e-05
 Reference value :  1.20248e-05
 Reference value :  1.20448e-05
 Reference value :  1.20648e-05
 Reference value :  1.20848e-05
 Reference value :  1.21048e-05
 Reference value :  1.21248e-05
 Reference value :  1.21448e-05
 Reference value :  1.21648e-05
 Reference value :  1.21748e-05
 Reference value :  1.21948e-05
 Reference value :  1.22148e-05
 Reference value :  1.22348e-05
 Reference value :  1.22548e-05
 Reference value :  1.22748e-05
 Reference value :  1.22948e-05
 Reference value :  1.23148e-05
 Reference value :  1.23348e-05
 Reference value :  1.23548e-05
 Reference value :  1.23748e-05
 Reference value :  1.24048e-05
 Reference value :  1.24248e-05
 Reference value :  1.24448e-05
 Reference value :  1.24648e-05
 Reference value :  1.24848e-05
 Reference value :  1.25148e-05
 Reference value :  1.25348e-05
 Reference value :  1.25548e-05
 Reference value :  1.25748e-05
 Reference value :  1.25948e-05
 Reference value :  1.26248e-05
 Reference value :  1.26448e-05
 Reference value :  1.26648e-05
 Reference value :  1.26948e-05
 Reference value :  1.27148e-05
 Reference value :  1.27348e-05
 Reference value :  1.27548e-05
 Reference value :  1.27748e-05
 Reference value :  1.27948e-05
 Reference value :  1.28148e-05
 Reference value :  1.28348e-05
 Reference value :  1.28548e-05
 Reference value :  1.28748e-05
 Reference value :  1.28948e-05
 Reference value :  1.29148e-05
 Reference value :  1.29348e-05
 Reference value :  1.29548e-05
 Reference value :  1.29748e-05
 Reference value :  1.29948e-05
 Reference value :  1.30148e-05
 Reference value :  1.30348e-05
 Reference value :  1.30548e-05
 Reference value :  1.30748e-05
 Reference value :  1.30948e-05
 Reference value :  1.31248e-05
 Reference value :  1.31448e-05
 Reference value :  1.31648e-05
 Reference value :  1.31848e-05
 Reference value :  1.32048e-05
 Reference value :  1.32248e-05
 Reference value :  1.32448e-05
 Reference value :  1.32648e-05
 Reference value :  1.32848e-05
 Reference value :  1.33048e-05
 Reference value :  1.33248e-05
 Reference value :  1.33448e-05
 Reference value :  1.33648e-05
 Reference value :  1.33848e-05
 Reference value :  1.34048e-05
 Reference value :  1.34248e-05
 Reference value :  1.34448e-05
 Reference value :  1.34648e-05
 Reference value :  1.34848e-05
 Reference value :  1.35048e-05
 Reference value :  1.35248e-05
 Reference value :  1.35448e-05
 Reference value :  1.35648e-05
 Reference value :  1.35848e-05
 Reference value :  1.36048e-05
 Reference value :  1.36248e-05
 Reference value :  1.36448e-05
 Reference value :  1.36648e-05
 Reference value :  1.36848e-05
 Reference value :  1.37048e-05
 Reference value :  1.37248e-05
 Reference value :  1.37448e-05
 Reference value :  1.37648e-05
 Reference value :  1.37848e-05
 Reference value :  1.38048e-05
 Reference value :  1.38248e-05
 Reference value :  1.38448e-05
 Reference value :  1.38648e-05
 Reference value :  1.38848e-05
 Reference value :  1.39048e-05
 Reference value :  1.39248e-05
 Reference value :  1.39448e-05
 Reference value :  1.39648e-05
 Reference value :  1.39848e-05
 Reference value :  1.40048e-05
 Reference value :  1.40248e-05
 Reference value :  1.40448e-05
 Reference value :  1.40648e-05
 Reference value :  1.40848e-05
 Reference value :  1.41048e-05
 Reference value :  1.41248e-05
 Reference value :  1.41448e-05
 Reference value :  1.41648e-05
 Reference value :  1.41848e-05
 Reference value :  1.42048e-05
 Reference value :  1.42248e-05
 Reference value :  1.42448e-05
 Reference value :  1.42648e-05
 Reference value :  1.42848e-05
 Reference value :  1.43048e-05
 Reference value :  1.43248e-05
 Reference value :  1.43448e-05
 Reference value :  1.43648e-05
 Reference value :  1.43848e-05
 Reference value :  1.44048e-05
 Reference value :  1.44248e-05
 Reference value :  1.44448e-05
 Reference value :  1.44648e-05
 Reference value :  1.44848e-05
 Reference value :  1.45048e-05
 Reference value :  1.45248e-05
 Reference value :  1.45448e-05
 Reference value :  1.45648e-05
 Reference value :  1.45848e-05
 Reference value :  1.46048e-05
 Reference value :  1.46248e-05
 Reference value :  1.46448e-05
 Reference value :  1.46648e-05
 Reference value :  1.46848e-05
 Reference value :  1.47048e-05
 Reference value :  1.47248e-05
 Reference value :  1.47448e-05
 Reference value :  1.47648e-05
 Reference value :  1.47848e-05
 Reference value :  1.48048e-05
 Reference value :  1.48248e-05
 Reference value :  1.48448e-05
 Reference value :  1.48648e-05
 Reference value :  1.48848e-05
 Reference value :  1.49048e-05
 Reference value :  1.49248e-05
 Reference value :  1.49448e-05
 Reference value :  1.49648e-05
 Reference value :  1.49848e-05
 Reference value :  1.50048e-05
 Reference value :  1.50248e-05
 Reference value :  1.50448e-05
 Reference value :  1.50648e-05
 Reference value :  1.50848e-05
 Reference value :  1.51048e-05
 Reference value :  1.51248e-05
 Reference value :  1.51448e-05
 Reference value :  1.51648e-05
 Reference value :  1.51848e-05
 Reference value :  1.52048e-05
 Reference value :  1.52248e-05
 Reference value :  1.52448e-05
 Reference value :  1.52648e-05
 Reference value :  1.52848e-05
 Reference value :  1.53048e-05
 Reference value :  1.53248e-05
 Reference value :  1.53448e-05
 Reference value :  1.53648e-05
 Reference value :  1.53848e-05
 Reference value :  1.54048e-05
 Reference value :  1.54248e-05
 Reference value :  1.54448e-05
 Reference value :  1.54648e-05
 Reference value :  1.54848e-05
 Reference value :  1.55048e-05
 Reference value :  1.55248e-05
 Reference value :  1.55448e-05
 Reference value :  1.55648e-05
 Reference value :  1.55848e-05
 Reference value :  1.56048e-05
 Reference value :  1.56248e-05
 Reference value :  1.56448e-05
 Reference value :  1.56648e-05
 Reference value :  1.56848e-05
 Reference value :  1.57048e-05
 Reference value :  1.57248e-05
 Reference value :  1.57448e-05
 Reference value :  1.57648e-05
 Reference value :  1.57848e-05
 Reference value :  1.58048e-05
 Reference value :  1.58248e-05
 Reference value :  1.58448e-05
 Reference value :  1.58648e-05
 Reference value :  1.58848e-05
 Reference value :  1.59048e-05
 Reference value :  1.59248e-05
 Reference value :  1.59448e-05
 Reference value :  1.59648e-05
 Reference value :  1.59848e-05
 Reference value :  1.60048e-05
 Reference value :  1.60248e-05
 Reference value :  1.60448e-05
 Reference value :  1.60748e-05
 Reference value :  1.60948e-05
 Reference value :  1.61148e-05
 Reference value :  1.61348e-05
 Reference value :  1.61648e-05
 Reference value :  1.61848e-05
 Reference value :  1.62048e-05
 Reference value :  1.62248e-05
 Reference value :  1.62448e-05
 Reference value :  1.62648e-05
 Reference value :  1.62848e-05
 Reference value :  1.63048e-05
 Reference value :  1.63248e-05
 Reference value :  1.63448e-05
 Reference value :  1.63648e-05
 Reference value :  1.63848e-05
 Reference value :  1.64048e-05
 Reference value :  1.64248e-05
 Reference value :  1.64448e-05
 Reference value :  1.64648e-05
 Reference value :  1.64848e-05
 Reference value :  1.65048e-05
 Reference value :  1.65248e-05
 Reference value :  1.65548e-05
 Reference value :  1.65748e-05
 Reference value :  1.65948e-05
 Reference value :  1.66148e-05
 Reference value :  1.66348e-05
 Reference value :  1.66548e-05
 Reference value :  1.66748e-05
 Reference value :  1.66948e-05
 Reference value :  1.67148e-05
 Reference value :  1.67348e-05
 Reference value :  1.67548e-05
 Reference value :  1.67748e-05
 Reference value :  1.67948e-05
 Reference value :  1.68148e-05
 Reference value :  1.68348e-05
 Reference value :  1.68548e-05
 Reference value :  1.68748e-05
 Reference value :  1.68948e-05
 Reference value :  1.69148e-05
 Reference value :  1.69348e-05
 Reference value :  1.69548e-05
 Reference value :  1.69748e-05
 Reference value :  1.69948e-05
 Reference value :  1.70148e-05
 Reference value :  1.70348e-05
 Reference value :  1.70548e-05
 Reference value :  1.70748e-05
 Reference value :  1.70948e-05
 Reference value :  1.71148e-05
 Reference value :  1.71348e-05
 Reference value :  1.71548e-05
 Reference value :  1.71748e-05
 Reference value :  1.71948e-05
 Reference value :  1.72148e-05
 Reference value :  1.72348e-05
 Reference value :  1.72548e-05
 Reference value :  1.72748e-05
 Reference value :  1.72948e-05
 Reference value :  1.73148e-05
 Reference value :  1.73248e-05
 Reference value :  1.73448e-05
 Reference value :  1.73748e-05
 Reference value :  1.73948e-05
 Reference value :  1.74148e-05
 Reference value :  1.74348e-05
 Reference value :  1.74548e-05
 Reference value :  1.74748e-05
 Reference value :  1.75048e-05
 Reference value :  1.75248e-05
 Reference value :  1.75448e-05
 Reference value :  1.75648e-05
 Reference value :  1.75848e-05
 Reference value :  1.76148e-05
 Reference value :  1.76348e-05
 Reference value :  1.76548e-05
 Reference value :  1.76748e-05
 Reference value :  1.76948e-05
 Reference value :  1.77248e-05
 Reference value :  1.77448e-05
 Reference value :  1.77648e-05
 Reference value :  1.77848e-05
 Reference value :  1.78048e-05
 Reference value :  1.78248e-05
 Reference value :  1.78448e-05
 Reference value :  1.78648e-05
 Reference value :  1.78848e-05
 Reference value :  1.79048e-05
 Reference value :  1.79248e-05
 Reference value :  1.79448e-05
 Reference value :  1.79648e-05
 Reference value :  1.79848e-05
 Reference value :  1.80048e-05
 Reference value :  1.80248e-05
 Reference value :  1.80448e-05
 Reference value :  1.80648e-05
 Reference value :  1.80848e-05
 Reference value :  1.81048e-05
 Reference value :  1.81248e-05
 Reference value :  1.81448e-05
 Reference value :  1.81648e-05
 Reference value :  1.81848e-05
 Reference value :  1.82048e-05
 Reference value :  1.82248e-05
 Reference value :  1.82448e-05
 Reference value :  1.82648e-05
 Reference value :  1.82848e-05
 Reference value :  1.83048e-05
 Reference value :  1.83248e-05
 Reference value :  1.83448e-05
 Reference value :  1.83648e-05
 Reference value :  1.83848e-05
 Reference value :  1.84048e-05
 Reference value :  1.84248e-05
 Reference value :  1.84448e-05
 Reference value :  1.84648e-05
 Reference value :  1.84848e-05
 Reference value :  1.85048e-05
 Reference value :  1.85248e-05
 Reference value :  1.85448e-05
 Reference value :  1.85648e-05
 Reference value :  1.85848e-05
 Reference value :  1.86048e-05
 Reference value :  1.86248e-05
 Reference value :  1.86448e-05
 Reference value :  1.86648e-05
 Reference value :  1.86848e-05
 Reference value :  1.87048e-05
 Reference value :  1.87248e-05
 Reference value :  1.87448e-05
 Reference value :  1.87648e-05
 Reference value :  1.87848e-05
 Reference value :  1.88048e-05
 Reference value :  1.88248e-05
 Reference value :  1.88448e-05
 Reference value :  1.88648e-05
 Reference value :  1.88848e-05
 Reference value :  1.89048e-05
 Reference value :  1.89248e-05
 Reference value :  1.89448e-05
 Reference value :  1.89648e-05
 Reference value :  1.89848e-05
 Reference value :  1.90048e-05
 Reference value :  1.90248e-05
 Reference value :  1.90448e-05
 Reference value :  1.90648e-05
 Reference value :  1.90848e-05
 Reference value :  1.91048e-05
 Reference value :  1.91248e-05
 Reference value :  1.91448e-05
 Reference value :  1.91648e-05
 Reference value :  1.91848e-05
 Reference value :  1.92048e-05
 Reference value :  1.92248e-05
 Reference value :  1.92448e-05
 Reference value :  1.92648e-05
 Reference value :  1.92848e-05
 Reference value :  1.93048e-05
 Reference value :  1.93248e-05
 Reference value :  1.93448e-05
 Reference value :  1.93648e-05
 Reference value :  1.93848e-05
 Reference value :  1.94048e-05
 Reference value :  1.94248e-05
 Reference value :  1.94548e-05
 Reference value :  1.94748e-05
 Reference value :  1.94948e-05
 Reference value :  1.95148e-05
 Reference value :  1.95348e-05
 Reference value :  1.95548e-05
 Reference value :  1.95848e-05
 Reference value :  1.96048e-05
 Reference value :  1.96248e-05
 Reference value :  1.96448e-05
 Reference value :  1.96648e-05
 Reference value :  1.96848e-05
 Reference value :  1.97048e-05
 Reference value :  1.97248e-05
 Reference value :  1.97448e-05
 Reference value :  1.97648e-05
 Reference value :  1.97848e-05
 Reference value :  1.98048e-05
 Reference value :  1.98248e-05
 Reference value :  1.98448e-05
 Reference value :  1.98648e-05
 Reference value :  1.98848e-05
 Reference value :  1.99048e-05
 Reference value :  1.99248e-05
 Reference value :  1.99448e-05
 Reference value :  1.99648e-05
 Reference value :  1.99848e-05
 Reference value :  2.00000e-05
No. of Data Rows : 2025
 meas tran sr_pos max deriv(v(vout)) failed!

 meas tran sr_neg min deriv(v(vout)) failed!

Note: Simulation executed from .control section 
