
Note: Compatibility modes selected: hs a


Circuit: ** sch_path: /foss/designs/sky130_op_amp/runs/run_2025-10-21_18-52-57/parameters/slew_rate/run_07/transient.sch

option SCALE: Scale is set to 1e-06 for instance and model parameters
option SCALE: Scale is set to 1e-06 for instance and model parameters
option SCALE: Scale is set to 1e-06 for instance and model parameters
option SCALE: Scale is set to 1e-06 for instance and model parameters
Doing analysis at TEMP = -40.000000 and TNOM = 27.000000

Using SPARSE 1.3 as Direct Linear Solver

Initial Transient Solution
--------------------------

Node                                   Voltage
----                                   -------
vdd                                        1.8
ibias                                 0.746937
vout                               1.22086e-05
vss                                          0
vn                                 1.22086e-05
vp                                           0
x1.a_8862_4192.t27                 0.000786274
x1.en.t0                                   1.8
x1.vss.t311                        9.28614e-05
x1.vss.t215                        5.47295e-05
x1.vdd.t97                                 1.8
x1.vdd.t96                                 1.8
x1.vdd.t44                                 1.8
x1.vdd.t95                                 1.8
x1.vdd.t93                                 1.8
x1.vdd.t94                                 1.8
x1.vdd.t47                                 1.8
x1.a_3868_4185.t39                  1.2088e-05
x1.ibias.t10                          0.746916
x1.a_3329_8823.t39                  1.2088e-05
x1.vss.t0                          1.41407e-05
x1.a_n1962_4406.t59                1.21195e-05
x1.ibias.t11                          0.746916
x1.vout.t21                        1.22045e-05
x1.vss.t6                          1.22057e-05
x1.a_n1962_4406.t58                1.21194e-05
x1.ibias.t12                          0.746916
x1.vout.t53                        1.22045e-05
x1.vss.t211                        5.35355e-05
x1.vss.t209                         5.3695e-05
x1.vss.t210                        6.86833e-05
x1.vss.t30                         5.01372e-05
x1.a_3329_8823.t38                  1.2088e-05
x1.ibias.t13                          0.746916
x1.a_3868_4185.t38                  1.2088e-05
x1.vss.t1                          1.39778e-05
x1.vss.t208                        1.21943e-05
x1.vss.t207                        1.21943e-05
x1.vss.t64                         1.40464e-05
x1.vdd.t92                                 1.8
x1.vdd.t91                                 1.8
x1.vdd.t71                                 1.8
x1.a_3868_4185.t37                  1.2088e-05
x1.ibias.t14                          0.746916
x1.a_3329_8823.t8                   1.2088e-05
x1.vss.t11                          1.3817e-05
x1.a_n735_8972.t23                      1.1621
x1.vp.t0                                     0
x1.a_3329_8823.t56                  1.2088e-05
x1.vss.t2                          1.35478e-05
x1.vss.t310                        1.21137e-05
x1.en.t1                                   1.8
x1.a_n1962_4406.t123               1.21193e-05
x1.vss.t77                          1.2212e-05
x1.a_3868_4185.t36                  1.2088e-05
x1.ibias.t15                          0.746916
x1.a_3329_8823.t17                  1.2088e-05
x1.vss.t7                          1.45156e-05
x1.a_3329_8823.t66                  1.2088e-05
x1.vn.t0                           1.22086e-05
x1.a_n935_8875.t15                     1.16167
x1.vss.t4                          1.36609e-05
x1.vdd.t19                                 1.8
x1.a_n735_8972.t27                      1.1621
x1.vout.t67                        1.22104e-05
x1.vdd.t15                                 1.8
x1.a_n1962_4406.t122               1.21195e-05
x1.en.t2                                   1.8
x1.vss.t309                        1.21137e-05
x1.vss.t8                          1.22111e-05
x1.a_3329_8823.t65                  1.2088e-05
x1.vn.t1                           1.22086e-05
x1.a_n935_8875.t14                     1.16167
x1.vss.t5                          1.34432e-05
x1.vdd.t36                                 1.8
x1.a_n735_8972.t28                      1.1621
x1.vout.t77                        1.22103e-05
x1.vdd.t5                                  1.8
x1.vss.t206                        1.21943e-05
x1.vss.t205                        1.21943e-05
x1.a_3329_8823.t55                  1.2088e-05
x1.a_n1962_4406.t57                1.21198e-05
x1.ibias.t16                          0.746916
x1.vout.t45                        1.22044e-05
x1.vss.t212                        1.22074e-05
x1.a_n1962_4406.t56                1.21196e-05
x1.ibias.t17                          0.746916
x1.vout.t2                         1.22044e-05
x1.vss.t308                        1.21137e-05
x1.en.t3                                   1.8
x1.a_n1962_4406.t121               1.21195e-05
x1.vss.t19                         1.22083e-05
x1.a_3329_8823.t43                  1.2088e-05
x1.vn.t2                           1.22086e-05
x1.a_n935_8875.t13                     1.16167
x1.vdd.t90                                 1.8
x1.vdd.t89                                 1.8
x1.a_n1962_4406.t79                1.21196e-05
x1.vss.t203                        1.21037e-05
x1.vss.t204                        1.21037e-05
x1.vss.t20                         1.22092e-05
x1.a_n1962_4406.t120               1.21195e-05
x1.en.t4                                   1.8
x1.vss.t307                        1.21153e-05
x1.vout.t38                        1.22045e-05
x1.ibias.t18                          0.746916
x1.a_n1962_4406.t55                1.21195e-05
x1.vss.t12                         1.22101e-05
x1.vss.t202                        1.21037e-05
x1.vss.t201                        1.21037e-05
x1.a_n1962_4406.t78                1.21194e-05
x1.vss.t56                         1.22141e-05
x1.vdd.t88                                 1.8
x1.vdd.t87                                 1.8
x1.a_n935_8875.t12                     1.16167
x1.vn.t3                           1.22086e-05
x1.a_3329_8823.t62                  1.2088e-05
x1.vss.t84                         1.32966e-05
x1.vout.t46                        1.22044e-05
x1.ibias.t19                          0.746916
x1.a_n1962_4406.t54                1.21198e-05
x1.vss.t9                          1.22065e-05
x1.vdd.t86                                 1.8
x1.vdd.t84                                 1.8
x1.vdd.t85                                 1.8
x1.a_3329_8823.t63                  1.2088e-05
x1.vp.t1                                     0
x1.a_n735_8972.t22                      1.1621
x1.vss.t89                         1.39005e-05
x1.vss.t306                        1.21153e-05
x1.en.t5                                   1.8
x1.a_n1962_4406.t119               1.21195e-05
x1.vdd.t17                                 1.8
x1.a_n735_8972.t29                      1.1621
x1.vout.t65                        1.22105e-05
x1.vdd.t16                                 1.8
x1.a_n735_8972.t30                      1.1621
x1.vout.t64                        1.22105e-05
x1.vss.t198                        1.21037e-05
x1.vss.t197                        1.21037e-05
x1.a_n1962_4406.t53                1.21197e-05
x1.ibias.t20                          0.746916
x1.vout.t42                        1.22044e-05
x1.vss.t45                          1.2207e-05
x1.vout.t35                        1.22044e-05
x1.ibias.t21                          0.746916
x1.a_n1962_4406.t52                1.21196e-05
x1.vss.t16                         1.22048e-05
x1.vss.t200                        1.20829e-05
x1.vss.t199                        1.20829e-05
x1.a_3868_4185.t55                  1.2088e-05
x1.vss.t27                          1.5705e-05
x1.vss.t196                        1.20829e-05
x1.vss.t195                        1.20829e-05
x1.a_3868_4185.t54                  1.2088e-05
x1.a_n1962_4406.t77                1.21196e-05
x1.vss.t193                        1.21037e-05
x1.vss.t194                        1.21037e-05
x1.vss.t38                         1.22132e-05
x1.a_3329_8823.t42                  1.2088e-05
x1.vn.t4                           1.22086e-05
x1.a_n935_8875.t11                     1.16167
x1.a_n1962_4406.t118               1.21195e-05
x1.en.t6                                   1.8
x1.vss.t305                        1.21137e-05
x1.vss.t15                         1.22045e-05
x1.a_n1962_4406.t117               1.21194e-05
x1.en.t7                                   1.8
x1.vss.t304                        1.21105e-05
x1.vss.t192                        7.04121e-05
x1.vss.t191                        6.30135e-05
x1.vss.t22                         5.73614e-05
x1.a_n735_8972.t21                      1.1621
x1.vp.t2                                     0
x1.a_3329_8823.t73                  1.2088e-05
x1.vss.t313                        1.39635e-05
x1.a_n1962_4406.t51                1.21195e-05
x1.ibias.t22                          0.746916
x1.vout.t9                         1.22045e-05
x1.a_n1962_4406.t116               1.21193e-05
x1.en.t8                                   1.8
x1.vss.t303                        1.21073e-05
x1.a_3329_8823.t35                  1.2088e-05
x1.ibias.t23                          0.746916
x1.a_3868_4185.t35                  1.2088e-05
x1.vss.t14                         1.36544e-05
x1.ibias.t7                           0.746703
x1.ibias.t6                           0.746905
x1.a_8862_4192.t0                   0.00101645
x1.vss.t214                        5.33249e-05
x1.vss.t302                        0.000103381
x1.en.t9                                   1.8
x1.a_8862_4192.t26                 0.000785709
x1.a_n935_8875.t33                     1.16167
x1.a_n935_8875.t32                     1.16167
x1.vdd.t110                                1.8
x1.vdd.t8                                  1.8
x1.a_n1962_4406.t50                1.21194e-05
x1.ibias.t24                          0.746916
x1.vout.t3                         1.22045e-05
x1.vss.t190                        1.21037e-05
x1.vss.t188                        1.21037e-05
x1.vss.t189                        1.21037e-05
x1.vout.t0                         1.22045e-05
x1.ibias.t25                          0.746916
x1.a_n1962_4406.t49                1.21195e-05
x1.vout.t6                         1.22045e-05
x1.ibias.t26                          0.746916
x1.a_n1962_4406.t48                1.21194e-05
x1.a_3868_4185.t53                  1.2088e-05
x1.vss.t186                        1.20829e-05
x1.vss.t187                        1.20829e-05
x1.vss.t51                         1.34842e-05
x1.a_8862_4192.t25                 0.000785574
x1.en.t10                                  1.8
x1.vss.t301                        7.71599e-05
x1.vss.t219                        5.18341e-05
x1.vss.t185                        5.90567e-05
x1.vss.t183                        5.91429e-05
x1.vss.t184                        7.40689e-05
x1.vdd.t7                                  1.8
x1.a_n735_8972.t31                      1.1621
x1.vout.t62                        1.22104e-05
x1.a_n735_8972.t7                       1.1621
x1.x62.x0.t1                            1.1621
x1.x62.x0.t2                            1.1621
x1.a_9909_7861.t0                       1.1621
x1.vss.t218                        5.90449e-05
x1.x62.x0.rbody_3                            0
x1.a_3868_4185.t34                  1.2088e-05
x1.ibias.t27                          0.746916
x1.a_3329_8823.t4                   1.2088e-05
x1.vss.t10                         1.51608e-05
x1.a_8862_4192.t3                   0.00101645
x1.ibias.t4                           0.746904
x1.ibias.t5                           0.746792
x1.vss.t300                        1.21169e-05
x1.en.t11                                  1.8
x1.a_n1962_4406.t115               1.21196e-05
x1.vss.t17                         1.22049e-05
x1.a_n1962_4406.t114               1.21192e-05
x1.en.t12                                  1.8
x1.vss.t299                        1.21089e-05
x1.vss.t182                        1.21037e-05
x1.vss.t181                        1.21037e-05
x1.a_n735_8972.t24                      1.1621
x1.a_n935_8875.t34                     1.16167
x1.vdd.t103                                1.8
x1.vdd.t30                                 1.8
x1.vss.t180                        1.21943e-05
x1.vss.t179                        1.21943e-05
x1.a_3329_8823.t54                  1.2088e-05
x1.a_3329_8823.t2                   1.2088e-05
x1.ibias.t28                          0.746916
x1.a_3868_4185.t33                  1.2088e-05
x1.vss.t13                          1.4807e-05
x1.vss.t178                        6.89522e-05
x1.vss.t177                         6.1541e-05
x1.vss.t293                         1.2088e-05
x1.en.t13                                  1.8
x1.a_3868_4185.t79                  1.2088e-05
x1.vss.t18                         1.43122e-05
x1.a_n935_8875.t10                     1.16167
x1.vn.t5                           1.22086e-05
x1.a_3329_8823.t64                  1.2088e-05
x1.vss.t298                        1.21089e-05
x1.en.t14                                  1.8
x1.a_n1962_4406.t113               1.21194e-05
x1.vss.t176                        1.21037e-05
x1.vss.t175                        1.21037e-05
x1.a_n1962_4406.t76                1.21196e-05
x1.a_3329_8823.t71                  1.2088e-05
x1.vn.t6                           1.22086e-05
x1.a_n935_8875.t9                      1.16167
x1.vdd.t83                                 1.8
x1.vdd.t82                                 1.8
x1.a_3868_4185.t78                  1.2088e-05
x1.en.t15                                  1.8
x1.vss.t297                         1.2088e-05
x1.a_3868_4185.t77                  1.2088e-05
x1.en.t16                                  1.8
x1.vss.t296                         1.2088e-05
x1.vdd.t33                                 1.8
x1.a_n735_8972.t32                      1.1621
x1.vout.t75                        1.22105e-05
x1.vss.t295                        9.14525e-05
x1.en.t17                                  1.8
x1.a_8862_4192.t24                  0.00078484
x1.a_3329_8823.t28                  1.2088e-05
x1.ibias.t29                          0.746916
x1.a_3868_4185.t32                  1.2088e-05
x1.a_3329_8823.t77                  1.2088e-05
x1.vp.t3                                     0
x1.a_n735_8972.t20                      1.1621
x1.vdd.t105                                1.8
x1.a_n735_8972.t33                      1.1621
x1.vout.t86                        1.22104e-05
x1.a_3868_4185.t31                  1.2088e-05
x1.ibias.t30                          0.746916
x1.a_3329_8823.t11                  1.2088e-05
x1.a_n1962_4406.t112               1.21194e-05
x1.en.t18                                  1.8
x1.vss.t294                        1.21121e-05
x1.a_8862_4192.t23                 0.000784742
x1.en.t19                                  1.8
x1.vss.t292                        7.23763e-05
x1.vss.t174                         5.4573e-05
x1.vss.t172                        5.45942e-05
x1.vss.t173                        6.94385e-05
x1.a_3329_8823.t12                  1.2088e-05
x1.ibias.t31                          0.746916
x1.a_3868_4185.t30                  1.2088e-05
x1.a_3868_4185.t52                  1.2088e-05
x1.vss.t170                        1.20829e-05
x1.vss.t171                        1.20829e-05
x1.vout.t49                        1.22045e-05
x1.ibias.t32                          0.746916
x1.a_n1962_4406.t47                1.21194e-05
x1.vout.t28                        1.22045e-05
x1.ibias.t33                          0.746916
x1.a_n1962_4406.t46                1.21194e-05
x1.a_n1962_4406.t45                1.21197e-05
x1.ibias.t34                          0.746916
x1.vout.t57                        1.22046e-05
x1.a_3868_4185.t76                  1.2088e-05
x1.en.t20                                  1.8
x1.vss.t291                         1.2088e-05
x1.a_3329_8823.t61                  1.2088e-05
x1.vp.t4                                     0
x1.a_n735_8972.t19                      1.1621
x1.vout.t69                        1.22105e-05
x1.a_n735_8972.t34                      1.1621
x1.vdd.t23                                 1.8
x1.vdd.t13                                 1.8
x1.vss.t130                        1.21037e-05
x1.vss.t129                        1.21037e-05
x1.a_3868_4185.t75                  1.2088e-05
x1.en.t21                                  1.8
x1.vss.t290                         1.2088e-05
x1.vss.t289                         1.2088e-05
x1.en.t22                                  1.8
x1.a_3868_4185.t74                  1.2088e-05
x1.vout.t54                        1.22044e-05
x1.ibias.t35                          0.746916
x1.a_n1962_4406.t44                1.21196e-05
x1.a_3868_4185.t29                  1.2088e-05
x1.ibias.t36                          0.746916
x1.a_3329_8823.t18                  1.2088e-05
x1.vss.t169                        1.21037e-05
x1.vss.t168                        1.21037e-05
x1.a_n1962_4406.t43                1.21196e-05
x1.ibias.t37                          0.746916
x1.vout.t52                        1.22044e-05
x1.vout.t25                        1.22044e-05
x1.ibias.t38                          0.746916
x1.a_n1962_4406.t42                1.21197e-05
x1.vss.t167                        1.21037e-05
x1.vss.t166                        1.21037e-05
x1.vout.t26                        1.22044e-05
x1.ibias.t39                          0.746916
x1.a_n1962_4406.t41                1.21196e-05
x1.vss.t165                        1.21037e-05
x1.vss.t164                        1.21037e-05
x1.a_n1962_4406.t75                1.21196e-05
x1.vss.t288                        1.21153e-05
x1.en.t23                                  1.8
x1.a_n1962_4406.t111               1.21195e-05
x1.a_n935_8875.t8                      1.16167
x1.vn.t7                           1.22086e-05
x1.a_3329_8823.t46                  1.2088e-05
x1.vss.t3                          1.37775e-05
x1.vdd.t81                                 1.8
x1.vdd.t80                                 1.8
x1.vss.t287                        1.21105e-05
x1.en.t24                                  1.8
x1.a_n1962_4406.t110               1.21193e-05
x1.vss.t286                        1.21073e-05
x1.en.t25                                  1.8
x1.a_n1962_4406.t109               1.21192e-05
x1.vdd.t106                                1.8
x1.a_n935_8875.t35                     1.16167
x1.a_n735_8972.t25                      1.1621
x1.vdd.t11                                 1.8
x1.a_n1962_4406.t40                1.21197e-05
x1.ibias.t40                          0.746916
x1.vout.t58                        1.22044e-05
x1.vss.t163                        1.21943e-05
x1.vss.t161                        1.21943e-05
x1.vss.t162                        1.42962e-05
x1.vdd.t25                                 1.8
x1.a_n735_8972.t35                      1.1621
x1.vout.t71                        1.22103e-05
x1.vss.t160                        1.21037e-05
x1.vss.t158                        1.21037e-05
x1.vss.t159                        1.21037e-05
x1.a_n1962_4406.t108               1.21194e-05
x1.en.t26                                  1.8
x1.vss.t285                        1.21105e-05
x1.a_3329_8823.t27                  1.2088e-05
x1.ibias.t41                          0.746916
x1.a_3868_4185.t28                  1.2088e-05
x1.a_n935_8875.t31                     1.16167
x1.a_n935_8875.t30                     1.16167
x1.vdd.t37                                 1.8
x1.a_n1962_4406.t39                1.21197e-05
x1.ibias.t42                          0.746916
x1.vout.t13                        1.22044e-05
x1.vout.t16                        1.22044e-05
x1.ibias.t43                          0.746916
x1.a_n1962_4406.t38                1.21195e-05
x1.a_n1962_4406.t37                1.21195e-05
x1.ibias.t44                          0.746916
x1.vout.t22                        1.22045e-05
x1.a_n1962_4406.t107               1.21193e-05
x1.en.t27                                  1.8
x1.vss.t284                        1.21073e-05
x1.a_3329_8823.t0                   1.2088e-05
x1.ibias.t45                          0.746916
x1.a_3868_4185.t27                  1.2088e-05
x1.a_n735_8972.t18                      1.1621
x1.vp.t5                                     0
x1.a_3329_8823.t47                  1.2088e-05
x1.vss.t157                        1.21943e-05
x1.vss.t155                        1.21943e-05
x1.a_n735_8972.t4                       1.1621
x1.vss.t156                         1.4126e-05
x1.vout.t73                        1.22105e-05
x1.a_n735_8972.t36                      1.1621
x1.vdd.t27                                 1.8
x1.a_n1962_4406.t36                1.21196e-05
x1.ibias.t46                          0.746916
x1.vout.t39                        1.22044e-05
x1.a_n1962_4406.t106               1.21194e-05
x1.en.t28                                  1.8
x1.vss.t280                        1.21121e-05
x1.vss.t281                        1.21105e-05
x1.en.t29                                  1.8
x1.a_n1962_4406.t105               1.21194e-05
x1.vss.t283                        1.21073e-05
x1.en.t30                                  1.8
x1.a_n1962_4406.t104               1.21193e-05
x1.vss.t282                        0.000102504
x1.en.t31                                  1.8
x1.a_8862_4192.t22                 0.000785249
x1.a_3329_8823.t53                  1.2088e-05
x1.vss.t153                        1.21943e-05
x1.vss.t154                        1.21943e-05
x1.vss.t61                         1.31202e-05
x1.vout.t14                        1.22045e-05
x1.ibias.t47                          0.746916
x1.a_n1962_4406.t35                1.21195e-05
x1.vss.t152                        1.21037e-05
x1.vss.t151                        1.21037e-05
x1.a_n1962_4406.t74                1.21193e-05
x1.vout.t17                        1.22045e-05
x1.ibias.t48                          0.746916
x1.a_n1962_4406.t34                1.21194e-05
x1.vss.t150                        1.21037e-05
x1.vss.t149                        1.21037e-05
x1.vss.t279                        1.21121e-05
x1.en.t32                                  1.8
x1.a_n1962_4406.t103               1.21194e-05
x1.a_n1962_4406.t33                1.21198e-05
x1.ibias.t49                          0.746916
x1.vout.t50                        1.22046e-05
x1.a_3868_4185.t73                  1.2088e-05
x1.en.t33                                  1.8
x1.vss.t278                         1.2088e-05
x1.vss.t274                         1.2088e-05
x1.en.t34                                  1.8
x1.a_3868_4185.t72                  1.2088e-05
x1.vss.t277                         1.2088e-05
x1.en.t35                                  1.8
x1.a_3868_4185.t71                  1.2088e-05
x1.a_n935_8875.t29                     1.16167
x1.a_n935_8875.t28                     1.16167
x1.vdd.t29                                 1.8
x1.vdd.t79                                 1.8
x1.vdd.t78                                 1.8
x1.a_n1962_4406.t32                1.21198e-05
x1.ibias.t50                          0.746916
x1.vout.t29                        1.22046e-05
x1.a_8862_4192.t21                 0.000785121
x1.en.t36                                  1.8
x1.vss.t276                        7.77361e-05
x1.a_3868_4185.t70                  1.2088e-05
x1.en.t37                                  1.8
x1.vss.t275                         1.2088e-05
x1.vss.t148                        1.20829e-05
x1.vss.t147                        1.20829e-05
x1.a_3868_4185.t51                  1.2088e-05
x1.vdd.t22                                 1.8
x1.a_n935_8875.t26                     1.16167
x1.a_n935_8875.t27                     1.16167
x1.vdd.t0                                  1.8
x1.vout.t23                        1.22046e-05
x1.ibias.t51                          0.746916
x1.a_n1962_4406.t31                1.21198e-05
x1.vss.t273                         1.2088e-05
x1.en.t38                                  1.8
x1.a_3868_4185.t69                  1.2088e-05
x1.a_3868_4185.t50                  1.2088e-05
x1.vss.t145                        1.20829e-05
x1.vss.t146                        1.20829e-05
x1.vss.t144                        5.79283e-05
x1.vss.t142                        5.80724e-05
x1.vss.t143                        7.29915e-05
x1.a_3868_4185.t49                  1.2088e-05
x1.vss.t140                        1.20829e-05
x1.vss.t141                        1.20829e-05
x1.vss.t272                         1.2088e-05
x1.en.t39                                  1.8
x1.a_3868_4185.t68                  1.2088e-05
x1.vss.t271                        1.21137e-05
x1.en.t40                                  1.8
x1.a_n1962_4406.t102               1.21195e-05
x1.a_3868_4185.t26                  1.2088e-05
x1.ibias.t52                          0.746916
x1.a_3329_8823.t14                  1.2088e-05
x1.a_3868_4185.t25                  1.2088e-05
x1.ibias.t53                          0.746916
x1.a_3329_8823.t24                  1.2088e-05
x1.a_3329_8823.t67                  1.2088e-05
x1.vn.t8                           1.22086e-05
x1.a_n935_8875.t7                      1.16167
x1.vss.t217                        1.38026e-05
x1.a_3868_4185.t24                  1.2088e-05
x1.ibias.t54                          0.746916
x1.a_3329_8823.t34                  1.2088e-05
x1.vdd.t77                                 1.8
x1.vdd.t76                                 1.8
x1.a_n1962_4406.t73                1.21196e-05
x1.vss.t138                        1.21037e-05
x1.vss.t139                        1.21037e-05
x1.a_n1962_4406.t72                1.21196e-05
x1.vss.t136                        1.21037e-05
x1.vss.t137                        1.21037e-05
x1.ibias.t3                           0.746797
x1.ibias.t2                           0.746908
x1.a_8862_4192.t2                   0.00101646
x1.vss.t216                        5.60814e-05
x1.vss.t270                        7.58529e-05
x1.en.t41                                  1.8
x1.a_8862_4192.t20                  0.00078554
x1.a_3868_4185.t23                  1.2088e-05
x1.ibias.t55                          0.746916
x1.a_3329_8823.t5                   1.2088e-05
x1.a_3329_8823.t9                   1.2088e-05
x1.ibias.t56                          0.746916
x1.a_3868_4185.t22                  1.2088e-05
x1.a_n1962_4406.t101               1.21194e-05
x1.en.t42                                  1.8
x1.vss.t269                        1.21105e-05
x1.a_n1962_4406.t100               1.21193e-05
x1.en.t43                                  1.8
x1.vss.t268                        1.21073e-05
x1.a_3329_8823.t13                  1.2088e-05
x1.ibias.t57                          0.746916
x1.a_3868_4185.t21                  1.2088e-05
x1.vdd.t75                                 1.8
x1.vdd.t73                                 1.8
x1.vdd.t74                                 1.8
x1.vdd.t40                                 1.8
x1.vss.t267                        9.23713e-05
x1.en.t44                                  1.8
x1.a_8862_4192.t19                 0.000785333
x1.a_8862_4192.t18                 0.000785682
x1.en.t45                                  1.8
x1.vss.t266                        0.000103381
x1.vdd.t101                                1.8
x1.a_n735_8972.t37                      1.1621
x1.vout.t83                        1.22105e-05
x1.a_n1962_4406.t30                1.21196e-05
x1.ibias.t58                          0.746916
x1.vout.t55                        1.22044e-05
x1.a_8862_4192.t1                   0.00101646
x1.ibias.t0                           0.746906
x1.ibias.t1                           0.746703
x1.a_3329_8823.t1                   1.2088e-05
x1.ibias.t59                          0.746916
x1.a_3868_4185.t20                  1.2088e-05
x1.vdd.t109                                1.8
x1.a_n935_8875.t36                     1.16167
x1.a_n735_8972.t26                      1.1621
x1.a_8862_4192.t17                 0.000785233
x1.en.t46                                  1.8
x1.vss.t265                        7.31302e-05
x1.vss.t135                         5.5501e-05
x1.vss.t133                        5.53992e-05
x1.vss.t134                        7.01258e-05
x1.vout.t81                        1.22104e-05
x1.a_n735_8972.t38                      1.1621
x1.vdd.t99                                 1.8
x1.vss.t128                        1.20829e-05
x1.vss.t127                        1.20829e-05
x1.a_3868_4185.t48                  1.2088e-05
x1.a_3868_4185.t47                  1.2088e-05
x1.vss.t131                        1.20829e-05
x1.vss.t132                        1.20829e-05
x1.a_n935_8875.t25                     1.16167
x1.a_n935_8875.t24                     1.16167
x1.vdd.t31                                 1.8
x1.a_3868_4185.t19                  1.2088e-05
x1.ibias.t60                          0.746916
x1.a_3329_8823.t25                  1.2088e-05
x1.a_3329_8823.t52                  1.2088e-05
x1.vss.t125                        1.21943e-05
x1.vss.t126                        1.21943e-05
x1.vss.t248                         7.3046e-05
x1.en.t47                                  1.8
x1.a_8862_4192.t16                 0.000784759
x1.a_3329_8823.t6                   1.2088e-05
x1.ibias.t61                          0.746916
x1.a_3868_4185.t18                  1.2088e-05
x1.vdd.t72                                 1.8
x1.vdd.t70                                 1.8
x1.a_3868_4185.t67                  1.2088e-05
x1.en.t48                                  1.8
x1.vss.t264                         1.2088e-05
x1.vout.t63                        1.22105e-05
x1.a_n735_8972.t39                      1.1621
x1.vdd.t14                                 1.8
x1.vout.t68                        1.22103e-05
x1.a_n735_8972.t40                      1.1621
x1.vdd.t20                                 1.8
x1.vdd.t2                                  1.8
x1.a_n1962_4406.t99                1.21193e-05
x1.en.t49                                  1.8
x1.vss.t263                        1.21089e-05
x1.a_8862_4192.t15                 0.000784854
x1.en.t50                                  1.8
x1.vss.t262                        9.14526e-05
x1.vss.t124                        1.21943e-05
x1.vss.t123                        1.21943e-05
x1.a_3329_8823.t51                  1.2088e-05
x1.a_n1962_4406.t98                1.21193e-05
x1.en.t51                                  1.8
x1.vss.t261                        1.21056e-05
x1.vdd.t69                                 1.8
x1.vdd.t67                                 1.8
x1.vdd.t68                                 1.8
x1.a_3329_8823.t58                  1.2088e-05
x1.vp.t6                                     0
x1.a_n735_8972.t17                      1.1621
x1.vss.t122                        1.21037e-05
x1.vss.t121                        1.21037e-05
x1.a_n1962_4406.t71                1.21196e-05
x1.a_3329_8823.t79                  1.2088e-05
x1.vn.t9                           1.22086e-05
x1.a_n935_8875.t6                      1.16167
x1.vout.t40                        1.22045e-05
x1.ibias.t62                          0.746916
x1.a_n1962_4406.t29                1.21196e-05
x1.a_n935_8875.t5                      1.16167
x1.vn.t10                          1.22086e-05
x1.a_3329_8823.t70                  1.2088e-05
x1.vdd.t66                                 1.8
x1.vdd.t64                                 1.8
x1.vdd.t65                                 1.8
x1.a_n735_8972.t5                       1.1621
x1.a_n935_8875.t37                     1.16167
x1.vdd.t28                                 1.8
x1.vout.t66                        1.22104e-05
x1.a_n735_8972.t41                      1.1621
x1.vdd.t18                                 1.8
x1.vss.t120                        1.21037e-05
x1.vss.t119                        1.21037e-05
x1.a_n1962_4406.t97                1.21194e-05
x1.en.t52                                  1.8
x1.vss.t260                        1.21153e-05
x1.a_n1962_4406.t28                1.21195e-05
x1.ibias.t63                          0.746916
x1.vout.t15                        1.22045e-05
x1.vss.t118                        1.21037e-05
x1.vss.t117                        1.21037e-05
x1.vdd.t4                                  1.8
x1.a_n935_8875.t38                     1.16167
x1.a_n735_8972.t0                       1.1621
x1.a_n735_8972.t16                      1.1621
x1.vp.t7                                     0
x1.a_3329_8823.t74                  1.2088e-05
x1.a_3329_8823.t75                  1.2088e-05
x1.vp.t8                                     0
x1.a_n735_8972.t15                      1.1621
x1.a_n1962_4406.t96                1.21196e-05
x1.en.t53                                  1.8
x1.vss.t259                        1.21169e-05
x1.vdd.t63                                 1.8
x1.vdd.t61                                 1.8
x1.vdd.t62                                 1.8
x1.vss.t116                        1.21037e-05
x1.vss.t115                        1.21037e-05
x1.a_n1962_4406.t70                1.21196e-05
x1.a_n1962_4406.t27                1.21196e-05
x1.ibias.t64                          0.746916
x1.vout.t18                        1.22044e-05
x1.vss.t258                        1.21153e-05
x1.en.t54                                  1.8
x1.a_n1962_4406.t95                1.21195e-05
x1.vout.t10                        1.22045e-05
x1.ibias.t65                          0.746916
x1.a_n1962_4406.t26                1.21195e-05
x1.a_n735_8972.t14                      1.1621
x1.vp.t9                                     0
x1.a_3329_8823.t78                  1.2088e-05
x1.a_3329_8823.t59                  1.2088e-05
x1.vp.t10                                    0
x1.a_n735_8972.t13                      1.1621
x1.a_n735_8972.t12                      1.1621
x1.vp.t11                                    0
x1.a_3329_8823.t69                  1.2088e-05
x1.a_n1962_4406.t69                1.21194e-05
x1.vss.t113                        1.21037e-05
x1.vss.t114                        1.21037e-05
x1.vss.t257                        1.21121e-05
x1.en.t55                                  1.8
x1.a_n1962_4406.t94                1.21194e-05
x1.a_n1962_4406.t68                1.21196e-05
x1.vss.t111                        1.21037e-05
x1.vss.t112                        1.21037e-05
x1.vout.t51                        1.22044e-05
x1.ibias.t66                          0.746916
x1.a_n1962_4406.t25                1.21196e-05
x1.vout.t30                        1.22046e-05
x1.ibias.t67                          0.746916
x1.a_n1962_4406.t24                1.21198e-05
x1.vout.t24                        1.22046e-05
x1.ibias.t68                          0.746916
x1.a_n1962_4406.t23                1.21196e-05
x1.vss.t256                        0.000103863
x1.en.t56                                  1.8
x1.a_8862_4192.t14                 0.000786612
x1.a_8862_4192.t13                 0.000786471
x1.en.t57                                  1.8
x1.vss.t255                        7.66712e-05
x1.vdd.t21                                 1.8
x1.a_n935_8875.t22                     1.16167
x1.a_n935_8875.t23                     1.16167
x1.a_3329_8823.t50                  1.2088e-05
x1.vss.t109                        1.21943e-05
x1.vss.t110                        1.21943e-05
x1.vout.t56                        1.22044e-05
x1.ibias.t69                          0.746916
x1.a_n1962_4406.t22                1.21198e-05
x1.a_n1962_4406.t21                1.21197e-05
x1.ibias.t70                          0.746916
x1.vout.t20                        1.22045e-05
x1.a_3329_8823.t16                  1.2088e-05
x1.ibias.t71                          0.746916
x1.a_3868_4185.t17                  1.2088e-05
x1.vss.t108                        1.20829e-05
x1.vss.t107                        1.20829e-05
x1.a_3868_4185.t46                  1.2088e-05
x1.vout.t79                        1.22104e-05
x1.a_n735_8972.t42                      1.1621
x1.vdd.t38                                 1.8
x1.vout.t34                        1.22044e-05
x1.ibias.t72                          0.746916
x1.a_n1962_4406.t20                1.21196e-05
x1.a_n1962_4406.t19                1.21197e-05
x1.ibias.t73                          0.746916
x1.vout.t11                        1.22045e-05
x1.vss.t106                        1.20829e-05
x1.vss.t105                        1.20829e-05
x1.a_3868_4185.t45                  1.2088e-05
x1.vss.t104                        1.21943e-05
x1.vss.t101                        1.21943e-05
x1.vss.t103                        1.21943e-05
x1.vss.t102                        1.29755e-05
x1.a_n1962_4406.t18                1.21195e-05
x1.ibias.t74                          0.746916
x1.vout.t31                        1.22045e-05
x1.vss.t100                        7.06977e-05
x1.vss.t99                         6.33113e-05
x1.vss.t254                        7.60449e-05
x1.en.t58                                  1.8
x1.a_8862_4192.t12                 0.000785078
x1.vout.t8                         1.22045e-05
x1.ibias.t75                          0.746916
x1.a_n1962_4406.t17                1.21195e-05
x1.a_n1962_4406.t16                1.21194e-05
x1.ibias.t76                          0.746916
x1.vout.t32                        1.22045e-05
x1.a_n1962_4406.t15                1.21194e-05
x1.ibias.t77                          0.746916
x1.vout.t4                         1.22045e-05
x1.a_3868_4185.t16                  1.2088e-05
x1.ibias.t78                          0.746916
x1.a_3329_8823.t21                  1.2088e-05
x1.vss.t98                         6.22925e-05
x1.vss.t97                         6.22925e-05
x1.ibias.t9                           0.746819
x1.a_n1962_4406.t93                1.21193e-05
x1.en.t59                                  1.8
x1.vss.t253                        1.21089e-05
x1.vout.t19                        1.22045e-05
x1.ibias.t79                          0.746916
x1.a_n1962_4406.t14                1.21194e-05
x1.a_n1962_4406.t92                1.21193e-05
x1.en.t60                                  1.8
x1.vss.t252                        1.21056e-05
x1.a_3868_4185.t15                  1.2088e-05
x1.ibias.t80                          0.746916
x1.a_3329_8823.t36                  1.2088e-05
x1.vss.t251                        9.28614e-05
x1.en.t61                                  1.8
x1.a_8862_4192.t11                 0.000786268
x1.vdd.t60                                 1.8
x1.vdd.t58                                 1.8
x1.vdd.t59                                 1.8
x1.a_n735_8972.t11                      1.1621
x1.vp.t12                                    0
x1.a_3329_8823.t40                  1.2088e-05
x1.vss.t250                        1.21089e-05
x1.en.t62                                  1.8
x1.a_n1962_4406.t91                1.21194e-05
x1.vss.t96                         1.21037e-05
x1.vss.t95                         1.21037e-05
x1.a_8862_4192.t10                 0.000785214
x1.en.t63                                  1.8
x1.vss.t249                        0.000102503
x1.a_3868_4185.t14                  1.2088e-05
x1.ibias.t81                          0.746916
x1.a_3329_8823.t32                  1.2088e-05
x1.vss.t247                        1.21056e-05
x1.en.t64                                  1.8
x1.a_n1962_4406.t90                1.21193e-05
x1.a_3329_8823.t23                  1.2088e-05
x1.ibias.t82                          0.746916
x1.a_3868_4185.t13                  1.2088e-05
x1.a_8862_4192.t9                   0.00078617
x1.en.t65                                  1.8
x1.vss.t246                        7.38187e-05
x1.vss.t245                         1.2088e-05
x1.en.t66                                  1.8
x1.a_3868_4185.t66                  1.2088e-05
x1.a_n735_8972.t1                       1.1621
x1.a_n935_8875.t39                     1.16167
x1.vdd.t9                                  1.8
x1.vdd.t35                                 1.8
x1.a_n735_8972.t43                      1.1621
x1.vout.t76                        1.22104e-05
x1.a_n1962_4406.t13                1.21195e-05
x1.ibias.t83                          0.746916
x1.vout.t43                        1.22044e-05
x1.a_3329_8823.t45                  1.2088e-05
x1.vn.t11                          1.22086e-05
x1.a_n935_8875.t4                      1.16167
x1.vout.t88                        1.22104e-05
x1.a_n735_8972.t44                      1.1621
x1.vdd.t108                                1.8
x1.vss.t244                        1.21105e-05
x1.en.t67                                  1.8
x1.a_n1962_4406.t89                1.21194e-05
x1.a_3868_4185.t12                  1.2088e-05
x1.ibias.t84                          0.746916
x1.a_3329_8823.t10                  1.2088e-05
x1.vss.t94                         1.20829e-05
x1.vss.t93                         1.20829e-05
x1.a_3868_4185.t44                  1.2088e-05
x1.a_3868_4185.t43                  1.2088e-05
x1.vss.t91                         1.20829e-05
x1.vss.t92                         1.20829e-05
x1.a_3329_8823.t7                   1.2088e-05
x1.ibias.t85                          0.746916
x1.a_3868_4185.t11                  1.2088e-05
x1.vdd.t10                                 1.8
x1.a_n935_8875.t40                     1.16167
x1.a_n735_8972.t2                       1.1621
x1.vss.t90                         1.21943e-05
x1.vss.t88                         1.21943e-05
x1.a_n935_8875.t17                     1.16167
x1.a_n935_8875.t3                      1.16167
x1.vn.t12                          1.22086e-05
x1.a_3329_8823.t57                  1.2088e-05
x1.vdd.t57                                 1.8
x1.vdd.t55                                 1.8
x1.vdd.t56                                 1.8
x1.vss.t243                        1.21073e-05
x1.en.t68                                  1.8
x1.a_n1962_4406.t88                1.21193e-05
x1.a_3868_4185.t10                  1.2088e-05
x1.ibias.t86                          0.746916
x1.a_3329_8823.t3                   1.2088e-05
x1.vss.t87                         6.78834e-05
x1.vss.t86                         6.04758e-05
x1.vss.t242                        7.36264e-05
x1.en.t69                                  1.8
x1.a_8862_4192.t8                  0.000785246
x1.a_3329_8823.t29                  1.2088e-05
x1.ibias.t87                          0.746916
x1.a_3868_4185.t9                   1.2088e-05
x1.vout.t74                        1.22104e-05
x1.a_n735_8972.t45                      1.1621
x1.vdd.t32                                 1.8
x1.a_3868_4185.t65                  1.2088e-05
x1.en.t70                                  1.8
x1.vss.t241                         1.2088e-05
x1.vdd.t102                                1.8
x1.a_n735_8972.t46                      1.1621
x1.vout.t84                        1.22103e-05
x1.a_8862_4192.t7                  0.000785343
x1.en.t71                                  1.8
x1.vss.t240                        9.23714e-05
x1.vss.t239                         1.2088e-05
x1.en.t72                                  1.8
x1.a_3868_4185.t64                  1.2088e-05
x1.vdd.t12                                 1.8
x1.a_n935_8875.t20                     1.16167
x1.a_n935_8875.t21                     1.16167
x1.a_n935_8875.t2                      1.16167
x1.vn.t13                          1.22086e-05
x1.a_3329_8823.t68                  1.2088e-05
x1.vdd.t54                                 1.8
x1.vdd.t53                                 1.8
x1.a_n935_8875.t16                     1.16167
x1.vss.t83                         1.21943e-05
x1.vss.t85                         1.21943e-05
x1.vss.t82                         1.21037e-05
x1.vss.t81                         1.21037e-05
x1.vout.t85                        1.22103e-05
x1.a_n735_8972.t47                      1.1621
x1.vdd.t104                                1.8
x1.vss.t80                         1.21037e-05
x1.vss.t79                         1.21037e-05
x1.a_n1962_4406.t67                1.21194e-05
x1.a_3868_4185.t8                   1.2088e-05
x1.ibias.t88                          0.746916
x1.a_3329_8823.t26                  1.2088e-05
x1.vss.t78                         1.21037e-05
x1.vss.t76                         1.21037e-05
x1.vdd.t107                                1.8
x1.a_n735_8972.t48                      1.1621
x1.vout.t87                        1.22104e-05
x1.a_n1962_4406.t66                1.21196e-05
x1.vss.t74                         1.21037e-05
x1.vss.t75                         1.21037e-05
x1.vss.t73                         1.21943e-05
x1.vss.t71                         1.21943e-05
x1.vss.t72                         1.21943e-05
x1.vdd.t24                                 1.8
x1.a_n735_8972.t49                      1.1621
x1.vout.t70                        1.22104e-05
x1.vss.t238                        1.21169e-05
x1.en.t73                                  1.8
x1.a_n1962_4406.t87                1.21196e-05
x1.vss.t70                         1.21037e-05
x1.vss.t68                         1.21037e-05
x1.vss.t69                         1.21037e-05
x1.vout.t72                        1.22103e-05
x1.a_n735_8972.t50                      1.1621
x1.vdd.t26                                 1.8
x1.vout.t41                        1.22044e-05
x1.ibias.t89                          0.746916
x1.a_n1962_4406.t12                1.21197e-05
x1.a_n1962_4406.t65                1.21196e-05
x1.vss.t66                         1.21037e-05
x1.vss.t67                         1.21037e-05
x1.a_n1962_4406.t86                1.21195e-05
x1.en.t74                                  1.8
x1.vss.t237                        1.21137e-05
x1.vss.t65                         1.21943e-05
x1.vss.t63                         1.21943e-05
x1.a_3329_8823.t49                  1.2088e-05
x1.a_3329_8823.t48                  1.2088e-05
x1.vss.t60                         1.21943e-05
x1.vss.t62                         1.21943e-05
x1.a_n1962_4406.t11                1.21195e-05
x1.ibias.t90                          0.746916
x1.vout.t47                        1.22045e-05
x1.vss.t59                         1.21037e-05
x1.vss.t58                         1.21037e-05
x1.a_n1962_4406.t64                1.21196e-05
x1.vdd.t1                                  1.8
x1.a_n935_8875.t18                     1.16167
x1.a_n935_8875.t19                     1.16167
x1.a_n735_8972.t10                      1.1621
x1.vp.t13                                    0
x1.a_3329_8823.t41                  1.2088e-05
x1.a_n935_8875.t1                      1.16167
x1.vn.t14                          1.22086e-05
x1.a_3329_8823.t72                  1.2088e-05
x1.vss.t312                        1.36397e-05
x1.vdd.t52                                 1.8
x1.vdd.t50                                 1.8
x1.vdd.t51                                 1.8
x1.vout.t44                        1.22044e-05
x1.ibias.t91                          0.746916
x1.a_n1962_4406.t10                1.21195e-05
x1.vss.t57                         1.21037e-05
x1.vss.t55                         1.21037e-05
x1.a_n1962_4406.t63                1.21196e-05
x1.a_3329_8823.t30                  1.2088e-05
x1.ibias.t92                          0.746916
x1.a_3868_4185.t7                   1.2088e-05
x1.vdd.t49                                 1.8
x1.vdd.t46                                 1.8
x1.vdd.t48                                 1.8
x1.vout.t82                        1.22104e-05
x1.a_n735_8972.t51                      1.1621
x1.vdd.t100                                1.8
x1.vout.t36                        1.22045e-05
x1.ibias.t93                          0.746916
x1.a_n1962_4406.t9                 1.21196e-05
x1.vout.t37                        1.22045e-05
x1.ibias.t94                          0.746916
x1.a_n1962_4406.t8                 1.21196e-05
x1.a_3329_8823.t22                  1.2088e-05
x1.ibias.t95                          0.746916
x1.a_3868_4185.t6                   1.2088e-05
x1.a_3329_8823.t60                  1.2088e-05
x1.vp.t14                                    0
x1.a_n735_8972.t9                       1.1621
x1.vss.t213                        1.34681e-05
x1.a_n1962_4406.t85                1.21193e-05
x1.en.t75                                  1.8
x1.vss.t236                        1.21121e-05
x1.a_9909_7861.t1                       1.1621
x1.vout.t78                        1.22067e-05
x1.a_3868_4185.t42                  1.2088e-05
x1.vss.t53                         1.20829e-05
x1.vss.t54                         1.20829e-05
x1.vout.t80                        1.22105e-05
x1.a_n735_8972.t52                      1.1621
x1.vdd.t98                                 1.8
x1.a_n1962_4406.t7                 1.21194e-05
x1.ibias.t96                          0.746916
x1.vout.t12                        1.22045e-05
x1.a_n1962_4406.t6                 1.21193e-05
x1.ibias.t97                          0.746916
x1.vout.t5                         1.22045e-05
x1.a_3868_4185.t63                  1.2088e-05
x1.en.t76                                  1.8
x1.vss.t235                         1.2088e-05
x1.vss.t234                         1.2088e-05
x1.en.t77                                  1.8
x1.a_3868_4185.t62                  1.2088e-05
x1.vss.t233                         1.2088e-05
x1.en.t78                                  1.8
x1.a_3868_4185.t61                  1.2088e-05
x1.a_3868_4185.t41                  1.2088e-05
x1.vss.t50                         1.20829e-05
x1.vss.t52                         1.20829e-05
x1.a_n735_8972.t6                       1.1621
x1.a_n935_8875.t41                     1.16167
x1.vdd.t34                                 1.8
x1.a_n735_8972.t3                       1.1621
x1.vss.t47                         1.21943e-05
x1.vss.t49                         1.21943e-05
x1.vss.t48                         1.32694e-05
x1.a_n1962_4406.t84                1.21196e-05
x1.en.t79                                  1.8
x1.vss.t223                        1.21169e-05
x1.vss.t232                        1.21121e-05
x1.en.t80                                  1.8
x1.a_n1962_4406.t83                1.21194e-05
x1.vout.t1                         1.22045e-05
x1.ibias.t98                          0.746916
x1.a_n1962_4406.t5                 1.21194e-05
x1.vss.t46                         1.21037e-05
x1.vss.t44                         1.21037e-05
x1.vss.t43                         7.08906e-05
x1.vss.t42                         6.34966e-05
x1.a_3868_4185.t60                  1.2088e-05
x1.en.t81                                  1.8
x1.vss.t231                         1.2088e-05
x1.a_3329_8823.t76                  1.2088e-05
x1.vp.t15                                    0
x1.a_n735_8972.t8                       1.1621
x1.a_n1962_4406.t62                1.21193e-05
x1.vss.t40                         1.21037e-05
x1.vss.t41                         1.21037e-05
x1.vss.t228                        1.21089e-05
x1.en.t82                                  1.8
x1.a_n1962_4406.t82                1.21193e-05
x1.vout.t7                         1.22045e-05
x1.ibias.t99                          0.746916
x1.a_n1962_4406.t4                 1.21194e-05
x1.a_n1962_4406.t61                1.21192e-05
x1.vss.t37                         1.21037e-05
x1.vss.t39                         1.21037e-05
x1.vss.t230                        1.21056e-05
x1.en.t83                                  1.8
x1.a_n1962_4406.t81                1.21192e-05
x1.vss.t229                         1.2088e-05
x1.en.t84                                  1.8
x1.a_3868_4185.t59                  1.2088e-05
x1.vss.t227                        7.55868e-05
x1.en.t85                                  1.8
x1.a_8862_4192.t6                  0.000786443
x1.vss.t226                         1.2088e-05
x1.en.t86                                  1.8
x1.a_3868_4185.t58                  1.2088e-05
x1.vss.t36                         1.21037e-05
x1.vss.t35                         1.21037e-05
x1.a_3868_4185.t5                   1.2088e-05
x1.ibias.t100                         0.746916
x1.a_3329_8823.t15                  1.2088e-05
x1.a_3868_4185.t4                   1.2088e-05
x1.ibias.t101                         0.746916
x1.a_3329_8823.t37                  1.2088e-05
x1.a_n1962_4406.t3                 1.21198e-05
x1.ibias.t102                         0.746916
x1.vout.t48                        1.22044e-05
x1.a_8862_4192.t5                  0.000786589
x1.en.t87                                  1.8
x1.vss.t225                        0.000103863
x1.vout.t60                        1.22104e-05
x1.a_n735_8972.t53                      1.1621
x1.vdd.t3                                  1.8
x1.vdd.t6                                  1.8
x1.a_n735_8972.t54                      1.1621
x1.vout.t61                        1.22104e-05
x1.a_n1962_4406.t80                1.21195e-05
x1.en.t88                                  1.8
x1.vss.t224                        1.21153e-05
x1.a_3329_8823.t33                  1.2088e-05
x1.ibias.t103                         0.746916
x1.a_3868_4185.t3                   1.2088e-05
x1.ibias.t8                           0.746813
x1.vss.t33                          5.6735e-05
x1.vss.t34                         5.67349e-05
x1.vss.t32                         5.86383e-05
x1.vss.t29                         5.86897e-05
x1.vss.t31                         7.34874e-05
x1.vout.t33                        1.22045e-05
x1.ibias.t104                         0.746916
x1.a_n1962_4406.t2                 1.21195e-05
x1.a_3329_8823.t20                  1.2088e-05
x1.ibias.t105                         0.746916
x1.a_3868_4185.t2                   1.2088e-05
x1.vss.t28                         1.20829e-05
x1.vss.t26                         1.20829e-05
x1.a_3868_4185.t40                  1.2088e-05
x1.vdd.t45                                 1.8
x1.vdd.t43                                 1.8
x1.vdd.t42                                 1.8
x1.vdd.t39                                 1.8
x1.vdd.t41                                 1.8
x1.a_3868_4185.t1                   1.2088e-05
x1.ibias.t106                         0.746916
x1.a_3329_8823.t31                  1.2088e-05
x1.a_3868_4185.t57                  1.2088e-05
x1.en.t89                                  1.8
x1.vss.t222                         1.2088e-05
x1.a_3329_8823.t19                  1.2088e-05
x1.ibias.t107                         0.746916
x1.a_3868_4185.t0                   1.2088e-05
x1.a_3868_4185.t56                  1.2088e-05
x1.en.t90                                  1.8
x1.vss.t221                         1.2088e-05
x1.a_n1962_4406.t1                 1.21194e-05
x1.ibias.t108                         0.746916
x1.vout.t27                        1.22045e-05
x1.vss.t25                         1.21037e-05
x1.vss.t24                         1.21037e-05
x1.a_n1962_4406.t60                1.21196e-05
x1.vss.t23                          6.8462e-05
x1.vss.t21                         6.10554e-05
x1.vss.t220                        7.41086e-05
x1.en.t91                                  1.8
x1.a_8862_4192.t4                  0.000786177
x1.a_n935_8875.t0                      1.16167
x1.vn.t15                          1.22086e-05
x1.a_3329_8823.t44                  1.2088e-05
x1.a_n1962_4406.t0                 1.21197e-05
x1.ibias.t109                         0.746916
x1.vout.t59                        1.22045e-05
x1.en.n0                                   1.8
x1.en.n3                                   1.8
x1.en.n7                                   1.8
x1.en.n11                                  1.8
x1.en.n15                                  1.8
x1.en.n38                                  1.8
x1.en.n41                                  1.8
x1.en.n44                                  1.8
x1.en.n50                                  1.8
x1.en.n56                                  1.8
x1.en.n62                                  1.8
x1.en.n68                                  1.8
x1.en.n74                                  1.8
x1.en.n80                                  1.8
x1.en.n19                                  1.8
x1.en.n22                                  1.8
x1.en.n26                                  1.8
x1.en.n30                                  1.8
x1.en.n34                                  1.8
x1.en.n87                                  1.8
x1.en.n89                                  1.8
x1.en.n88                                  1.8
x1.en.n2                                   1.8
x1.en.n1                                   1.8
x1.en.n5                                   1.8
x1.en.n4                                   1.8
x1.en.n9                                   1.8
x1.en.n8                                   1.8
x1.en.n13                                  1.8
x1.en.n12                                  1.8
x1.en.n17                                  1.8
x1.en.n16                                  1.8
x1.en.n39                                  1.8
x1.en.n40                                  1.8
x1.en.n42                                  1.8
x1.en.n43                                  1.8
x1.en.n45                                  1.8
x1.en.n46                                  1.8
x1.en.n47                                  1.8
x1.en.n48                                  1.8
x1.en.n51                                  1.8
x1.en.n52                                  1.8
x1.en.n53                                  1.8
x1.en.n54                                  1.8
x1.en.n57                                  1.8
x1.en.n58                                  1.8
x1.en.n59                                  1.8
x1.en.n60                                  1.8
x1.en.n63                                  1.8
x1.en.n64                                  1.8
x1.en.n65                                  1.8
x1.en.n66                                  1.8
x1.en.n69                                  1.8
x1.en.n70                                  1.8
x1.en.n71                                  1.8
x1.en.n72                                  1.8
x1.en.n75                                  1.8
x1.en.n76                                  1.8
x1.en.n77                                  1.8
x1.en.n78                                  1.8
x1.en.n81                                  1.8
x1.en.n82                                  1.8
x1.en.n20                                  1.8
x1.en.n21                                  1.8
x1.en.n23                                  1.8
x1.en.n24                                  1.8
x1.en.n27                                  1.8
x1.en.n28                                  1.8
x1.en.n31                                  1.8
x1.en.n32                                  1.8
x1.en.n35                                  1.8
x1.en.n36                                  1.8
x1.en.n84                                  1.8
x1.en.n83                                  1.8
x1.en.n90                                  1.8
x1.en.n49                                  1.8
x1.en.n25                                  1.8
x1.en.n29                                  1.8
x1.en.n37                                  1.8
x1.en.n6                                   1.8
x1.en.n61                                  1.8
x1.en.n73                                  1.8
x1.en.n10                                  1.8
x1.en.n14                                  1.8
x1.en.n18                                  1.8
x1.en.n33                                  1.8
x1.en.n55                                  1.8
x1.en.n67                                  1.8
x1.en.n79                                  1.8
x1.en.n86                                  1.8
x1.en.n85                                  1.8
x1.vss.n1977                       1.42534e-05
x1.vss.n1888                       5.86271e-05
x1.vss.n2092                       1.28809e-05
x1.vss.n1496                       1.22145e-05
x1.vss.n2383                       5.84219e-05
x1.vss.n123                        5.88093e-05
x1.vss.n1376                       1.22133e-05
x1.vss.n719                        1.22139e-05
x1.vss.n1211                       1.21898e-05
x1.vss.n825                        1.21821e-05
x1.vss.n2192                       1.42784e-05
x1.vss.n243                        1.43588e-05
x1.vss.n2109                       1.27314e-05
x1.vss.n668                        1.25674e-05
x1.vss.n2129                       1.34786e-05
x1.vss.n317                        1.33998e-05
x1.vss.n661                        1.33968e-05
x1.vss.n314                        1.34741e-05
x1.vss.n2337                       4.98443e-05
x1.vss.n165                        4.89412e-05
x1.vss.n1494                       1.22139e-05
x1.vss.n722                        1.22133e-05
x1.vss.n1905                       1.41697e-05
x1.vss.n1529                       1.40762e-05
x1.vss.n187                        4.89913e-05
x1.vss.n167                         4.9895e-05
x1.vss.n2224                       1.59788e-05
x1.vss.n213                        1.63289e-05
x1.vss.n590                        1.48569e-05
x1.vss.n211                         1.4953e-05
x1.vss.n1207                       1.22204e-05
x1.vss.n826                        1.22264e-05
x1.vss.n2090                       1.29739e-05
x1.vss.n1499                       1.30742e-05
x1.vss.n1886                       5.86994e-05
x1.vss.n1534                       5.87402e-05
x1.vss.n1879                       5.86994e-05
x1.vss.n1878                       5.87402e-05
x1.vss.n1639                       5.78568e-05
x1.vss.n127                        5.74313e-05
x1.vss.n524                        1.65839e-05
x1.vss.n523                         1.6574e-05
x1.vss.n568                        1.61579e-05
x1.vss.n567                        1.62743e-05
x1.vss.n1663                       5.83356e-05
x1.vss.n1662                        5.8307e-05
x1.vss.n1707                       5.86518e-05
x1.vss.n1706                       5.85924e-05
x1.vss.n2335                       4.80935e-05
x1.vss.n2226                       1.66469e-05
x1.vss.n164                        4.96133e-05
x1.vss.n2333                       4.87865e-05
x1.vss.n2332                       4.94086e-05
x1.vss.n2331                        4.9231e-05
x1.vss.n2227                       4.86797e-05
x1.vss.n2330                       4.90776e-05
x1.vss.n2329                       4.85962e-05
x1.vss.n2328                       4.89453e-05
x1.vss.n2327                       4.85272e-05
x1.vss.n2326                       4.84687e-05
x1.vss.n2325                       4.88313e-05
x1.vss.n2324                       4.87331e-05
x1.vss.n2323                       4.84186e-05
x1.vss.n2322                       4.83756e-05
x1.vss.n2321                       4.86487e-05
x1.vss.n2320                       4.85763e-05
x1.vss.n2319                       4.83388e-05
x1.vss.n2318                       4.83073e-05
x1.vss.n2317                       4.85142e-05
x1.vss.n2316                       4.84612e-05
x1.vss.n2315                       4.82803e-05
x1.vss.n2314                       4.82574e-05
x1.vss.n2313                       4.84161e-05
x1.vss.n2312                       4.83779e-05
x1.vss.n2311                        4.8238e-05
x1.vss.n2310                       4.82218e-05
x1.vss.n2309                       4.83459e-05
x1.vss.n2308                       4.83193e-05
x1.vss.n2307                       4.82083e-05
x1.vss.n2306                       4.81972e-05
x1.vss.n2305                       4.82976e-05
x1.vss.n2304                       4.82803e-05
x1.vss.n2303                       4.81884e-05
x1.vss.n2302                       4.81816e-05
x1.vss.n2301                       4.82669e-05
x1.vss.n2300                       4.82574e-05
x1.vss.n2299                       4.81768e-05
x1.vss.n2298                       4.81737e-05
x1.vss.n2297                       4.82513e-05
x1.vss.n2296                       4.82487e-05
x1.vss.n2295                       4.81723e-05
x1.vss.n2294                       4.81727e-05
x1.vss.n2293                       4.82493e-05
x1.vss.n2292                       4.82534e-05
x1.vss.n2291                       4.81747e-05
x1.vss.n2290                       4.81785e-05
x1.vss.n2289                       4.82608e-05
x1.vss.n2288                       4.82719e-05
x1.vss.n2287                       4.81842e-05
x1.vss.n2286                       4.81917e-05
x1.vss.n2285                       4.82868e-05
x1.vss.n2284                       4.83059e-05
x1.vss.n2283                       4.82014e-05
x1.vss.n2282                       4.82135e-05
x1.vss.n2281                       4.83296e-05
x1.vss.n2280                       4.83583e-05
x1.vss.n2279                       4.82281e-05
x1.vss.n2278                       4.82456e-05
x1.vss.n2277                       4.83927e-05
x1.vss.n2276                       4.84336e-05
x1.vss.n2275                       4.82663e-05
x1.vss.n2274                       4.82908e-05
x1.vss.n2273                       4.84818e-05
x1.vss.n2272                       4.85384e-05
x1.vss.n2271                       4.83196e-05
x1.vss.n2270                       4.83532e-05
x1.vss.n2269                       4.86045e-05
x1.vss.n2268                       4.86816e-05
x1.vss.n2267                       4.83924e-05
x1.vss.n2266                       4.84381e-05
x1.vss.n2265                       4.87714e-05
x1.vss.n2264                       4.88758e-05
x1.vss.n2263                       4.84913e-05
x1.vss.n2262                       4.85535e-05
x1.vss.n2261                        4.8997e-05
x1.vss.n2260                       4.91376e-05
x1.vss.n2259                       4.86268e-05
x1.vss.n2258                       4.87153e-05
x1.vss.n2257                       4.93006e-05
x1.vss.n2256                       4.94891e-05
x1.vss.n2255                       4.88284e-05
x1.vss.n2254                       4.97066e-05
x1.vss.n2253                       5.04932e-05
x1.vss.n2336                       4.91749e-05
x1.vss.n2252                       5.07682e-05
x1.vss.n2251                       5.02629e-05
x1.vss.n166                        4.97268e-05
x1.vss.n2250                       5.10653e-05
x1.vss.n162                        5.06516e-05
x1.vss.n2342                       5.02343e-05
x1.vss.n2249                       5.13805e-05
x1.vss.n161                        5.10426e-05
x1.vss.n2343                       5.07083e-05
x1.vss.n2248                       5.17105e-05
x1.vss.n160                        5.14314e-05
x1.vss.n2344                       5.11566e-05
x1.vss.n2247                       5.20527e-05
x1.vss.n2246                       5.18171e-05
x1.vss.n159                        5.15851e-05
x1.vss.n2245                       5.24052e-05
x1.vss.n155                        5.22005e-05
x1.vss.n2350                       5.19982e-05
x1.vss.n2244                       5.27666e-05
x1.vss.n154                        5.25823e-05
x1.vss.n2351                       5.23992e-05
x1.vss.n2243                       5.31362e-05
x1.vss.n153                        5.29634e-05
x1.vss.n2352                       5.27907e-05
x1.vss.n2242                       5.35133e-05
x1.vss.n2241                       5.33445e-05
x1.vss.n152                        5.31748e-05
x1.vss.n2240                       5.38977e-05
x1.vss.n148                        5.37262e-05
x1.vss.n2358                       5.35529e-05
x1.vss.n2239                       5.42897e-05
x1.vss.n147                        5.41092e-05
x1.vss.n2359                        5.3926e-05
x1.vss.n2238                       5.46896e-05
x1.vss.n146                        5.44941e-05
x1.vss.n2360                        5.4295e-05
x1.vss.n2237                        5.5098e-05
x1.vss.n2236                       5.48814e-05
x1.vss.n145                        5.46603e-05
x1.vss.n2235                       5.55159e-05
x1.vss.n141                        5.52718e-05
x1.vss.n2366                       5.50222e-05
x1.vss.n2234                       5.59445e-05
x1.vss.n140                        5.56658e-05
x1.vss.n2367                       5.53807e-05
x1.vss.n2233                       5.63853e-05
x1.vss.n139                         5.6064e-05
x1.vss.n2368                       5.57356e-05
x1.vss.n2232                       5.68401e-05
x1.vss.n2231                       5.64671e-05
x1.vss.n135                        5.60866e-05
x1.vss.n2230                       5.73113e-05
x1.vss.n134                        5.68751e-05
x1.vss.n2374                       5.64328e-05
x1.vss.n2229                       5.78016e-05
x1.vss.n133                        5.72871e-05
x1.vss.n2375                       5.67735e-05
x1.vss.n2228                       5.83143e-05
x1.vss.n132                        5.76987e-05
x1.vss.n2376                       5.71074e-05
x1.vss.n124                        5.80938e-05
x1.vss.n122                         5.8854e-05
x1.vss.n126                        5.74333e-05
x1.vss.n2384                        5.9427e-05
x1.vss.n2382                       5.77505e-05
x1.vss.n121                        5.93707e-05
x1.vss.n1715                       5.88032e-05
x1.vss.n1714                       5.92411e-05
x1.vss.n1713                       5.91307e-05
x1.vss.n1638                       5.87668e-05
x1.vss.n1712                       5.90363e-05
x1.vss.n1711                       5.87252e-05
x1.vss.n1710                       5.86863e-05
x1.vss.n1709                       5.89554e-05
x1.vss.n1708                       5.88864e-05
x1.vss.n1705                       5.87687e-05
x1.vss.n1704                       5.87177e-05
x1.vss.n1703                       5.85665e-05
x1.vss.n1702                       5.85439e-05
x1.vss.n1701                       5.86732e-05
x1.vss.n1700                       5.86344e-05
x1.vss.n1699                       5.85242e-05
x1.vss.n1698                       5.85069e-05
x1.vss.n1697                       5.86004e-05
x1.vss.n1696                       5.85705e-05
x1.vss.n1695                       5.84917e-05
x1.vss.n1694                       5.84783e-05
x1.vss.n1693                        5.8544e-05
x1.vss.n1692                       5.85204e-05
x1.vss.n1691                       5.84663e-05
x1.vss.n1690                       5.84555e-05
x1.vss.n1689                       5.84992e-05
x1.vss.n1688                       5.84799e-05
x1.vss.n1687                       5.84457e-05
x1.vss.n1686                       5.84367e-05
x1.vss.n1685                       5.84621e-05
x1.vss.n1684                       5.84455e-05
x1.vss.n1683                       5.84282e-05
x1.vss.n1682                       5.84201e-05
x1.vss.n1681                       5.84295e-05
x1.vss.n1680                        5.8414e-05
x1.vss.n1679                       5.84122e-05
x1.vss.n1678                       5.84044e-05
x1.vss.n1677                       5.83986e-05
x1.vss.n1676                       5.83829e-05
x1.vss.n1675                       5.83964e-05
x1.vss.n1674                       5.83881e-05
x1.vss.n1673                       5.83666e-05
x1.vss.n1672                       5.83494e-05
x1.vss.n1671                       5.83794e-05
x1.vss.n1670                         5.837e-05
x1.vss.n1669                       5.83309e-05
x1.vss.n1668                       5.83107e-05
x1.vss.n1667                       5.83597e-05
x1.vss.n1666                       5.83483e-05
x1.vss.n1665                       5.82883e-05
x1.vss.n1664                       5.82633e-05
x1.vss.n1661                       5.82069e-05
x1.vss.n1660                       5.81744e-05
x1.vss.n1659                       5.82904e-05
x1.vss.n1658                       5.82713e-05
x1.vss.n1657                       5.81368e-05
x1.vss.n1656                       5.80933e-05
x1.vss.n1655                       5.82492e-05
x1.vss.n1654                       5.82236e-05
x1.vss.n1653                       5.80429e-05
x1.vss.n1652                       5.79847e-05
x1.vss.n1651                        5.8194e-05
x1.vss.n1650                       5.81597e-05
x1.vss.n1649                       5.79173e-05
x1.vss.n1648                       5.78392e-05
x1.vss.n1647                       5.81198e-05
x1.vss.n1646                       5.80731e-05
x1.vss.n1645                       5.77489e-05
x1.vss.n1644                       5.76445e-05
x1.vss.n1643                       5.80177e-05
x1.vss.n1642                       5.79492e-05
x1.vss.n1641                       5.75236e-05
x1.vss.n1640                       5.73842e-05
x1.vss.n129                        5.69203e-05
x1.vss.n1718                       5.80412e-05
x1.vss.n2381                       5.72177e-05
x1.vss.n2380                       5.67378e-05
x1.vss.n2379                       5.65344e-05
x1.vss.n128                        5.69685e-05
x1.vss.n2378                       5.63119e-05
x1.vss.n2377                       5.66987e-05
x1.vss.n131                        5.64143e-05
x1.vss.n130                        5.60725e-05
x1.vss.n2373                       5.61182e-05
x1.vss.n2372                       5.58181e-05
x1.vss.n2371                       5.55506e-05
x1.vss.n136                        5.58124e-05
x1.vss.n2370                       5.52716e-05
x1.vss.n2369                       5.54983e-05
x1.vss.n138                        5.51771e-05
x1.vss.n137                        5.49827e-05
x1.vss.n2365                       5.48497e-05
x1.vss.n2364                       5.46853e-05
x1.vss.n2363                       5.43807e-05
x1.vss.n142                         5.4517e-05
x1.vss.n2362                       5.40702e-05
x1.vss.n2361                       5.41794e-05
x1.vss.n144                        5.38375e-05
x1.vss.n143                        5.37548e-05
x1.vss.n2357                       5.34916e-05
x1.vss.n2356                       5.34359e-05
x1.vss.n2355                       5.31145e-05
x1.vss.n149                        5.31419e-05
x1.vss.n2354                       5.27919e-05
x1.vss.n2353                       5.27885e-05
x1.vss.n151                        5.24314e-05
x1.vss.n150                        5.24695e-05
x1.vss.n2349                       5.20702e-05
x1.vss.n2348                       5.21487e-05
x1.vss.n2347                       5.18314e-05
x1.vss.n156                        5.17047e-05
x1.vss.n2346                       5.15196e-05
x1.vss.n2345                       5.13344e-05
x1.vss.n158                        5.09591e-05
x1.vss.n157                        5.12159e-05
x1.vss.n2341                       5.05798e-05
x1.vss.n2340                       5.09235e-05
x1.vss.n2339                       5.06461e-05
x1.vss.n163                        5.02017e-05
x1.vss.n2338                       5.03881e-05
x1.vss.n1785                       5.94371e-05
x1.vss.n1617                       5.90468e-05
x1.vss.n1616                        5.8719e-05
x1.vss.n1784                       5.94419e-05
x1.vss.n1783                       5.90348e-05
x1.vss.n1782                       5.86732e-05
x1.vss.n1779                       5.90003e-05
x1.vss.n1778                       5.94371e-05
x1.vss.n1780                       5.84642e-05
x1.vss.n1777                       5.94303e-05
x1.vss.n1720                       5.89648e-05
x1.vss.n1719                       5.82005e-05
x1.vss.n1776                       5.94252e-05
x1.vss.n1775                       5.89463e-05
x1.vss.n125                        5.79198e-05
x1.vss.n1536                       5.87787e-05
x1.vss.n1531                       5.86953e-05
x1.vss.n1877                       5.87584e-05
x1.vss.n1538                        5.8787e-05
x1.vss.n1876                       5.87303e-05
x1.vss.n1721                       5.87965e-05
x1.vss.n1537                       5.87762e-05
x1.vss.n1539                       5.87578e-05
x1.vss.n1722                        5.8807e-05
x1.vss.n1543                       5.87929e-05
x1.vss.n1870                       5.87805e-05
x1.vss.n1723                        5.8818e-05
x1.vss.n1544                       5.88083e-05
x1.vss.n1869                       5.87999e-05
x1.vss.n1724                       5.88295e-05
x1.vss.n1545                       5.88229e-05
x1.vss.n1868                       5.88171e-05
x1.vss.n1726                       5.88413e-05
x1.vss.n1725                       5.88367e-05
x1.vss.n1546                       5.88328e-05
x1.vss.n1727                       5.88533e-05
x1.vss.n1550                       5.88502e-05
x1.vss.n1862                       5.88475e-05
x1.vss.n1728                       5.88654e-05
x1.vss.n1551                       5.88633e-05
x1.vss.n1861                       5.88615e-05
x1.vss.n1729                       5.88776e-05
x1.vss.n1552                       5.88762e-05
x1.vss.n1860                       5.88749e-05
x1.vss.n1731                       5.88899e-05
x1.vss.n1730                       5.88889e-05
x1.vss.n1553                       5.88881e-05
x1.vss.n1732                       5.89023e-05
x1.vss.n1557                       5.89016e-05
x1.vss.n1854                        5.8901e-05
x1.vss.n1733                       5.89146e-05
x1.vss.n1558                       5.89142e-05
x1.vss.n1853                       5.89138e-05
x1.vss.n1734                        5.8927e-05
x1.vss.n1559                       5.89267e-05
x1.vss.n1852                       5.89264e-05
x1.vss.n1736                       5.89394e-05
x1.vss.n1735                       5.89392e-05
x1.vss.n1560                        5.8939e-05
x1.vss.n1737                       5.89518e-05
x1.vss.n1564                       5.89516e-05
x1.vss.n1846                       5.89515e-05
x1.vss.n1738                       5.89642e-05
x1.vss.n1565                       5.89641e-05
x1.vss.n1845                        5.8964e-05
x1.vss.n1739                       5.89766e-05
x1.vss.n1566                       5.89765e-05
x1.vss.n1844                       5.89765e-05
x1.vss.n1741                        5.8989e-05
x1.vss.n1740                        5.8989e-05
x1.vss.n1567                        5.8989e-05
x1.vss.n1742                       5.90014e-05
x1.vss.n1571                       5.90014e-05
x1.vss.n1838                       5.90014e-05
x1.vss.n1743                       5.90138e-05
x1.vss.n1572                       5.90138e-05
x1.vss.n1837                       5.90139e-05
x1.vss.n1744                       5.90262e-05
x1.vss.n1573                       5.90262e-05
x1.vss.n1836                       5.90263e-05
x1.vss.n1746                       5.90386e-05
x1.vss.n1745                       5.90386e-05
x1.vss.n1574                       5.90387e-05
x1.vss.n1747                        5.9051e-05
x1.vss.n1578                        5.9051e-05
x1.vss.n1830                       5.90511e-05
x1.vss.n1748                       5.90634e-05
x1.vss.n1579                       5.90634e-05
x1.vss.n1829                       5.90635e-05
x1.vss.n1749                       5.90757e-05
x1.vss.n1580                       5.90758e-05
x1.vss.n1828                       5.90759e-05
x1.vss.n1751                       5.90881e-05
x1.vss.n1750                       5.90882e-05
x1.vss.n1581                       5.90883e-05
x1.vss.n1752                       5.91005e-05
x1.vss.n1585                       5.91005e-05
x1.vss.n1822                       5.91006e-05
x1.vss.n1753                       5.91129e-05
x1.vss.n1586                       5.91129e-05
x1.vss.n1821                       5.91129e-05
x1.vss.n1754                       5.91253e-05
x1.vss.n1587                       5.91252e-05
x1.vss.n1820                       5.91251e-05
x1.vss.n1756                       5.91377e-05
x1.vss.n1755                       5.91374e-05
x1.vss.n1588                       5.91372e-05
x1.vss.n1757                       5.91501e-05
[...]
 Reference value :  6.52114e-06
 Reference value :  6.55114e-06
 Reference value :  6.57114e-06
 Reference value :  6.59114e-06
 Reference value :  6.61114e-06
 Reference value :  6.63114e-06
 Reference value :  6.65114e-06
 Reference value :  6.67114e-06
 Reference value :  6.70114e-06
 Reference value :  6.73114e-06
 Reference value :  6.75114e-06
 Reference value :  6.78114e-06
 Reference value :  6.81114e-06
 Reference value :  6.83114e-06
 Reference value :  6.85114e-06
 Reference value :  6.87114e-06
 Reference value :  6.89114e-06
 Reference value :  6.91114e-06
 Reference value :  6.93114e-06
 Reference value :  6.95114e-06
 Reference value :  6.97114e-06
 Reference value :  6.99114e-06
 Reference value :  7.01114e-06
 Reference value :  7.04114e-06
 Reference value :  7.06114e-06
 Reference value :  7.08114e-06
 Reference value :  7.11114e-06
 Reference value :  7.13114e-06
 Reference value :  7.15114e-06
 Reference value :  7.18114e-06
 Reference value :  7.20114e-06
 Reference value :  7.23114e-06
 Reference value :  7.26114e-06
 Reference value :  7.29114e-06
 Reference value :  7.31114e-06
 Reference value :  7.34114e-06
 Reference value :  7.37114e-06
 Reference value :  7.39114e-06
 Reference value :  7.42114e-06
 Reference value :  7.45114e-06
 Reference value :  7.48114e-06
 Reference value :  7.50114e-06
 Reference value :  7.52114e-06
 Reference value :  7.54114e-06
 Reference value :  7.56114e-06
 Reference value :  7.59114e-06
 Reference value :  7.61114e-06
 Reference value :  7.64114e-06
 Reference value :  7.66114e-06
 Reference value :  7.69114e-06
 Reference value :  7.71114e-06
 Reference value :  7.73114e-06
 Reference value :  7.75114e-06
 Reference value :  7.77114e-06
 Reference value :  7.79114e-06
 Reference value :  7.81114e-06
 Reference value :  7.83114e-06
 Reference value :  7.85114e-06
 Reference value :  7.87114e-06
 Reference value :  7.89114e-06
 Reference value :  7.91114e-06
 Reference value :  7.93114e-06
 Reference value :  7.95114e-06
 Reference value :  7.97114e-06
 Reference value :  7.99114e-06
 Reference value :  8.01114e-06
 Reference value :  8.03114e-06
 Reference value :  8.05114e-06
 Reference value :  8.07114e-06
 Reference value :  8.09114e-06
 Reference value :  8.11114e-06
 Reference value :  8.13114e-06
 Reference value :  8.15114e-06
 Reference value :  8.17114e-06
 Reference value :  8.19114e-06
 Reference value :  8.21114e-06
 Reference value :  8.23114e-06
 Reference value :  8.25114e-06
 Reference value :  8.27114e-06
 Reference value :  8.29114e-06
 Reference value :  8.31114e-06
 Reference value :  8.33114e-06
 Reference value :  8.35114e-06
 Reference value :  8.37114e-06
 Reference value :  8.39114e-06
 Reference value :  8.41114e-06
 Reference value :  8.43114e-06
 Reference value :  8.45114e-06
 Reference value :  8.47114e-06
 Reference value :  8.49114e-06
 Reference value :  8.51114e-06
 Reference value :  8.54114e-06
 Reference value :  8.57114e-06
 Reference value :  8.60114e-06
 Reference value :  8.63114e-06
 Reference value :  8.66114e-06
 Reference value :  8.69114e-06
 Reference value :  8.71114e-06
 Reference value :  8.73114e-06
 Reference value :  8.76114e-06
 Reference value :  8.78114e-06
 Reference value :  8.81114e-06
 Reference value :  8.83114e-06
 Reference value :  8.86114e-06
 Reference value :  8.88114e-06
 Reference value :  8.90114e-06
 Reference value :  8.92114e-06
 Reference value :  8.94114e-06
 Reference value :  8.96114e-06
 Reference value :  8.98114e-06
 Reference value :  9.00114e-06
 Reference value :  9.02114e-06
 Reference value :  9.04114e-06
 Reference value :  9.06114e-06
 Reference value :  9.08114e-06
 Reference value :  9.10114e-06
 Reference value :  9.12114e-06
 Reference value :  9.14114e-06
 Reference value :  9.16114e-06
 Reference value :  9.18114e-06
 Reference value :  9.20114e-06
 Reference value :  9.22114e-06
 Reference value :  9.24114e-06
 Reference value :  9.26114e-06
 Reference value :  9.28114e-06
 Reference value :  9.30114e-06
 Reference value :  9.32114e-06
 Reference value :  9.34114e-06
 Reference value :  9.36114e-06
 Reference value :  9.38114e-06
 Reference value :  9.40114e-06
 Reference value :  9.42114e-06
 Reference value :  9.44114e-06
 Reference value :  9.46114e-06
 Reference value :  9.48114e-06
 Reference value :  9.50114e-06
 Reference value :  9.52114e-06
 Reference value :  9.54114e-06
 Reference value :  9.56114e-06
 Reference value :  9.58114e-06
 Reference value :  9.60114e-06
 Reference value :  9.62114e-06
 Reference value :  9.64114e-06
 Reference value :  9.66114e-06
 Reference value :  9.68114e-06
 Reference value :  9.70114e-06
 Reference value :  9.72114e-06
 Reference value :  9.74114e-06
 Reference value :  9.76114e-06
 Reference value :  9.78114e-06
 Reference value :  9.80114e-06
 Reference value :  9.82114e-06
 Reference value :  9.84114e-06
 Reference value :  9.86114e-06
 Reference value :  9.88114e-06
 Reference value :  9.90114e-06
 Reference value :  9.92114e-06
 Reference value :  9.94114e-06
 Reference value :  9.96114e-06
 Reference value :  9.98114e-06
 Reference value :  1.00011e-05
 Reference value :  1.00211e-05
 Reference value :  1.00411e-05
 Reference value :  1.00611e-05
 Reference value :  1.00811e-05
 Reference value :  1.01011e-05
 Reference value :  1.01211e-05
 Reference value :  1.01411e-05
 Reference value :  1.01611e-05
 Reference value :  1.01811e-05
 Reference value :  1.02011e-05
 Reference value :  1.02211e-05
 Reference value :  1.02411e-05
 Reference value :  1.02611e-05
 Reference value :  1.02811e-05
 Reference value :  1.03011e-05
 Reference value :  1.03211e-05
 Reference value :  1.03411e-05
 Reference value :  1.03611e-05
 Reference value :  1.03811e-05
 Reference value :  1.04011e-05
 Reference value :  1.04211e-05
 Reference value :  1.04411e-05
 Reference value :  1.04611e-05
 Reference value :  1.04811e-05
 Reference value :  1.05011e-05
 Reference value :  1.05211e-05
 Reference value :  1.05411e-05
 Reference value :  1.05611e-05
 Reference value :  1.05811e-05
 Reference value :  1.06011e-05
 Reference value :  1.06211e-05
 Reference value :  1.06411e-05
 Reference value :  1.06611e-05
 Reference value :  1.06811e-05
 Reference value :  1.07011e-05
 Reference value :  1.07211e-05
 Reference value :  1.07411e-05
 Reference value :  1.07611e-05
 Reference value :  1.07811e-05
 Reference value :  1.08011e-05
 Reference value :  1.08211e-05
 Reference value :  1.08411e-05
 Reference value :  1.08611e-05
 Reference value :  1.08811e-05
 Reference value :  1.09111e-05
 Reference value :  1.09411e-05
 Reference value :  1.09611e-05
 Reference value :  1.09811e-05
 Reference value :  1.10111e-05
 Reference value :  1.10311e-05
 Reference value :  1.10611e-05
 Reference value :  1.10911e-05
 Reference value :  1.11111e-05
 Reference value :  1.11311e-05
 Reference value :  1.11511e-05
 Reference value :  1.11711e-05
 Reference value :  1.11911e-05
 Reference value :  1.12111e-05
 Reference value :  1.12311e-05
 Reference value :  1.12511e-05
 Reference value :  1.12811e-05
 Reference value :  1.13011e-05
 Reference value :  1.13211e-05
 Reference value :  1.13511e-05
 Reference value :  1.13711e-05
 Reference value :  1.13911e-05
 Reference value :  1.14111e-05
 Reference value :  1.14411e-05
 Reference value :  1.14611e-05
 Reference value :  1.14911e-05
 Reference value :  1.15111e-05
 Reference value :  1.15411e-05
 Reference value :  1.15711e-05
 Reference value :  1.16011e-05
 Reference value :  1.16311e-05
 Reference value :  1.16511e-05
 Reference value :  1.16711e-05
 Reference value :  1.16911e-05
 Reference value :  1.17111e-05
 Reference value :  1.17411e-05
 Reference value :  1.17611e-05
 Reference value :  1.17811e-05
 Reference value :  1.18011e-05
 Reference value :  1.18211e-05
 Reference value :  1.18411e-05
 Reference value :  1.18611e-05
 Reference value :  1.18811e-05
 Reference value :  1.19011e-05
 Reference value :  1.19211e-05
 Reference value :  1.19411e-05
 Reference value :  1.19611e-05
 Reference value :  1.19811e-05
 Reference value :  1.20011e-05
 Reference value :  1.20211e-05
 Reference value :  1.20411e-05
 Reference value :  1.20611e-05
 Reference value :  1.20811e-05
 Reference value :  1.21011e-05
 Reference value :  1.21211e-05
 Reference value :  1.21411e-05
 Reference value :  1.21611e-05
 Reference value :  1.21811e-05
 Reference value :  1.22011e-05
 Reference value :  1.22211e-05
 Reference value :  1.22411e-05
 Reference value :  1.22611e-05
 Reference value :  1.22811e-05
 Reference value :  1.23011e-05
 Reference value :  1.23311e-05
 Reference value :  1.23611e-05
 Reference value :  1.23911e-05
 Reference value :  1.24211e-05
 Reference value :  1.24511e-05
 Reference value :  1.24711e-05
 Reference value :  1.25011e-05
 Reference value :  1.25211e-05
 Reference value :  1.25511e-05
 Reference value :  1.25811e-05
 Reference value :  1.26011e-05
 Reference value :  1.26211e-05
 Reference value :  1.26411e-05
 Reference value :  1.26611e-05
 Reference value :  1.26811e-05
 Reference value :  1.27011e-05
 Reference value :  1.27211e-05
 Reference value :  1.27511e-05
 Reference value :  1.27711e-05
 Reference value :  1.28011e-05
 Reference value :  1.28211e-05
 Reference value :  1.28411e-05
 Reference value :  1.28611e-05
 Reference value :  1.28811e-05
 Reference value :  1.29011e-05
 Reference value :  1.29211e-05
 Reference value :  1.29411e-05
 Reference value :  1.29611e-05
 Reference value :  1.29811e-05
 Reference value :  1.30011e-05
 Reference value :  1.30211e-05
 Reference value :  1.30411e-05
 Reference value :  1.30611e-05
 Reference value :  1.30811e-05
 Reference value :  1.31011e-05
 Reference value :  1.31211e-05
 Reference value :  1.31411e-05
 Reference value :  1.31611e-05
 Reference value :  1.31811e-05
 Reference value :  1.32011e-05
 Reference value :  1.32211e-05
 Reference value :  1.32411e-05
 Reference value :  1.32611e-05
 Reference value :  1.32811e-05
 Reference value :  1.33011e-05
 Reference value :  1.33311e-05
 Reference value :  1.33611e-05
 Reference value :  1.33811e-05
 Reference value :  1.34111e-05
 Reference value :  1.34411e-05
 Reference value :  1.34611e-05
 Reference value :  1.34811e-05
 Reference value :  1.35111e-05
 Reference value :  1.35411e-05
 Reference value :  1.35611e-05
 Reference value :  1.35811e-05
 Reference value :  1.36011e-05
 Reference value :  1.36311e-05
 Reference value :  1.36611e-05
 Reference value :  1.36911e-05
 Reference value :  1.37211e-05
 Reference value :  1.37511e-05
 Reference value :  1.37811e-05
 Reference value :  1.38111e-05
 Reference value :  1.38411e-05
 Reference value :  1.38711e-05
 Reference value :  1.38911e-05
 Reference value :  1.39111e-05
 Reference value :  1.39311e-05
 Reference value :  1.39611e-05
 Reference value :  1.39811e-05
 Reference value :  1.40111e-05
 Reference value :  1.40311e-05
 Reference value :  1.40511e-05
 Reference value :  1.40711e-05
 Reference value :  1.40911e-05
 Reference value :  1.41111e-05
 Reference value :  1.41311e-05
 Reference value :  1.41511e-05
 Reference value :  1.41711e-05
 Reference value :  1.41911e-05
 Reference value :  1.42111e-05
 Reference value :  1.42311e-05
 Reference value :  1.42511e-05
 Reference value :  1.42711e-05
 Reference value :  1.42911e-05
 Reference value :  1.43111e-05
 Reference value :  1.43311e-05
 Reference value :  1.43511e-05
 Reference value :  1.43711e-05
 Reference value :  1.43911e-05
 Reference value :  1.44111e-05
 Reference value :  1.44311e-05
 Reference value :  1.44511e-05
 Reference value :  1.44711e-05
 Reference value :  1.44911e-05
 Reference value :  1.45111e-05
 Reference value :  1.45311e-05
 Reference value :  1.45511e-05
 Reference value :  1.45711e-05
 Reference value :  1.45911e-05
 Reference value :  1.46111e-05
 Reference value :  1.46311e-05
 Reference value :  1.46511e-05
 Reference value :  1.46711e-05
 Reference value :  1.46911e-05
 Reference value :  1.47111e-05
 Reference value :  1.47311e-05
 Reference value :  1.47511e-05
 Reference value :  1.47711e-05
 Reference value :  1.47911e-05
 Reference value :  1.48111e-05
 Reference value :  1.48311e-05
 Reference value :  1.48511e-05
 Reference value :  1.48711e-05
 Reference value :  1.48911e-05
 Reference value :  1.49111e-05
 Reference value :  1.49311e-05
 Reference value :  1.49511e-05
 Reference value :  1.49711e-05
 Reference value :  1.49911e-05
 Reference value :  1.50111e-05
 Reference value :  1.50311e-05
 Reference value :  1.50611e-05
 Reference value :  1.50811e-05
 Reference value :  1.51011e-05
 Reference value :  1.51211e-05
 Reference value :  1.51411e-05
 Reference value :  1.51611e-05
 Reference value :  1.51811e-05
 Reference value :  1.52011e-05
 Reference value :  1.52211e-05
 Reference value :  1.52411e-05
 Reference value :  1.52611e-05
 Reference value :  1.52811e-05
 Reference value :  1.53011e-05
 Reference value :  1.53211e-05
 Reference value :  1.53411e-05
 Reference value :  1.53611e-05
 Reference value :  1.53811e-05
 Reference value :  1.54011e-05
 Reference value :  1.54211e-05
 Reference value :  1.54411e-05
 Reference value :  1.54611e-05
 Reference value :  1.54811e-05
 Reference value :  1.55011e-05
 Reference value :  1.55211e-05
 Reference value :  1.55411e-05
 Reference value :  1.55611e-05
 Reference value :  1.55811e-05
 Reference value :  1.56011e-05
 Reference value :  1.56211e-05
 Reference value :  1.56411e-05
 Reference value :  1.56611e-05
 Reference value :  1.56811e-05
 Reference value :  1.57011e-05
 Reference value :  1.57211e-05
 Reference value :  1.57411e-05
 Reference value :  1.57611e-05
 Reference value :  1.57811e-05
 Reference value :  1.58011e-05
 Reference value :  1.58211e-05
 Reference value :  1.58411e-05
 Reference value :  1.58611e-05
 Reference value :  1.58811e-05
 Reference value :  1.58911e-05
 Reference value :  1.59111e-05
 Reference value :  1.59311e-05
 Reference value :  1.59511e-05
 Reference value :  1.59711e-05
 Reference value :  1.59911e-05
 Reference value :  1.60111e-05
 Reference value :  1.60411e-05
 Reference value :  1.60611e-05
 Reference value :  1.60811e-05
 Reference value :  1.61111e-05
 Reference value :  1.61311e-05
 Reference value :  1.61511e-05
 Reference value :  1.61811e-05
 Reference value :  1.62011e-05
 Reference value :  1.62211e-05
 Reference value :  1.62411e-05
 Reference value :  1.62611e-05
 Reference value :  1.62811e-05
 Reference value :  1.63011e-05
 Reference value :  1.63211e-05
 Reference value :  1.63411e-05
 Reference value :  1.63611e-05
 Reference value :  1.63811e-05
 Reference value :  1.64111e-05
 Reference value :  1.64411e-05
 Reference value :  1.64711e-05
 Reference value :  1.65011e-05
 Reference value :  1.65211e-05
 Reference value :  1.65411e-05
 Reference value :  1.65611e-05
 Reference value :  1.65811e-05
 Reference value :  1.66011e-05
 Reference value :  1.66311e-05
 Reference value :  1.66511e-05
 Reference value :  1.66711e-05
 Reference value :  1.66911e-05
 Reference value :  1.67111e-05
 Reference value :  1.67311e-05
 Reference value :  1.67511e-05
 Reference value :  1.67711e-05
 Reference value :  1.67911e-05
 Reference value :  1.68111e-05
 Reference value :  1.68311e-05
 Reference value :  1.68511e-05
 Reference value :  1.68711e-05
 Reference value :  1.68911e-05
 Reference value :  1.69211e-05
 Reference value :  1.69511e-05
 Reference value :  1.69811e-05
 Reference value :  1.70011e-05
 Reference value :  1.70211e-05
 Reference value :  1.70411e-05
 Reference value :  1.70611e-05
 Reference value :  1.70911e-05
 Reference value :  1.71211e-05
 Reference value :  1.71411e-05
 Reference value :  1.71711e-05
 Reference value :  1.71911e-05
 Reference value :  1.72111e-05
 Reference value :  1.72311e-05
 Reference value :  1.72611e-05
 Reference value :  1.72811e-05
 Reference value :  1.73011e-05
 Reference value :  1.73311e-05
 Reference value :  1.73511e-05
 Reference value :  1.73811e-05
 Reference value :  1.74011e-05
 Reference value :  1.74311e-05
 Reference value :  1.74611e-05
 Reference value :  1.74911e-05
 Reference value :  1.75211e-05
 Reference value :  1.75411e-05
 Reference value :  1.75611e-05
 Reference value :  1.75911e-05
 Reference value :  1.76111e-05
 Reference value :  1.76311e-05
 Reference value :  1.76511e-05
 Reference value :  1.76811e-05
 Reference value :  1.77011e-05
 Reference value :  1.77311e-05
 Reference value :  1.77511e-05
 Reference value :  1.77711e-05
 Reference value :  1.77911e-05
 Reference value :  1.78111e-05
 Reference value :  1.78311e-05
 Reference value :  1.78511e-05
 Reference value :  1.78711e-05
 Reference value :  1.79011e-05
 Reference value :  1.79311e-05
 Reference value :  1.79611e-05
 Reference value :  1.79911e-05
 Reference value :  1.80211e-05
 Reference value :  1.80511e-05
 Reference value :  1.80811e-05
 Reference value :  1.81011e-05
 Reference value :  1.81311e-05
 Reference value :  1.81511e-05
 Reference value :  1.81811e-05
 Reference value :  1.82111e-05
 Reference value :  1.82411e-05
 Reference value :  1.82711e-05
 Reference value :  1.82911e-05
 Reference value :  1.83111e-05
 Reference value :  1.83311e-05
 Reference value :  1.83511e-05
 Reference value :  1.83811e-05
 Reference value :  1.84011e-05
 Reference value :  1.84211e-05
 Reference value :  1.84511e-05
 Reference value :  1.84711e-05
 Reference value :  1.84911e-05
 Reference value :  1.85111e-05
 Reference value :  1.85311e-05
 Reference value :  1.85611e-05
 Reference value :  1.85911e-05
 Reference value :  1.86111e-05
 Reference value :  1.86311e-05
 Reference value :  1.86611e-05
 Reference value :  1.86911e-05
 Reference value :  1.87211e-05
 Reference value :  1.87411e-05
 Reference value :  1.87611e-05
 Reference value :  1.87811e-05
 Reference value :  1.88011e-05
 Reference value :  1.88211e-05
 Reference value :  1.88411e-05
 Reference value :  1.88611e-05
 Reference value :  1.88811e-05
 Reference value :  1.89011e-05
 Reference value :  1.89211e-05
 Reference value :  1.89411e-05
 Reference value :  1.89611e-05
 Reference value :  1.89811e-05
 Reference value :  1.90011e-05
 Reference value :  1.90211e-05
 Reference value :  1.90411e-05
 Reference value :  1.90611e-05
 Reference value :  1.90811e-05
 Reference value :  1.91011e-05
 Reference value :  1.91211e-05
 Reference value :  1.91411e-05
 Reference value :  1.91611e-05
 Reference value :  1.91811e-05
 Reference value :  1.92011e-05
 Reference value :  1.92211e-05
 Reference value :  1.92411e-05
 Reference value :  1.92611e-05
 Reference value :  1.92811e-05
 Reference value :  1.93011e-05
 Reference value :  1.93211e-05
 Reference value :  1.93411e-05
 Reference value :  1.93611e-05
 Reference value :  1.93811e-05
 Reference value :  1.94011e-05
 Reference value :  1.94211e-05
 Reference value :  1.94411e-05
 Reference value :  1.94611e-05
 Reference value :  1.94811e-05
 Reference value :  1.95011e-05
 Reference value :  1.95211e-05
 Reference value :  1.95411e-05
 Reference value :  1.95611e-05
 Reference value :  1.95811e-05
 Reference value :  1.96011e-05
 Reference value :  1.96211e-05
 Reference value :  1.96411e-05
 Reference value :  1.96611e-05
 Reference value :  1.96811e-05
 Reference value :  1.97011e-05
 Reference value :  1.97211e-05
 Reference value :  1.97411e-05
 Reference value :  1.97611e-05
 Reference value :  1.97811e-05
 Reference value :  1.98011e-05
 Reference value :  1.98211e-05
 Reference value :  1.98411e-05
 Reference value :  1.98611e-05
 Reference value :  1.98811e-05
 Reference value :  1.99011e-05
 Reference value :  1.99211e-05
 Reference value :  1.99411e-05
 Reference value :  1.99611e-05
 Reference value :  1.99811e-05
 Reference value :  2.00000e-05
No. of Data Rows : 2025
 meas tran sr_pos max deriv(v(vout)) failed!

 meas tran sr_neg min deriv(v(vout)) failed!

Note: Simulation executed from .control section 
