
Note: Compatibility modes selected: hs a


Circuit: ** sch_path: /foss/designs/sky130_op_amp/runs/run_2025-10-21_18-17-43/parameters/spice_params/run_0/sky130_op_amp_tb.sch

option SCALE: Scale is set to 1e-06 for instance and model parameters
option SCALE: Scale is set to 1e-06 for instance and model parameters
option SCALE: Scale is set to 1e-06 for instance and model parameters
option SCALE: Scale is set to 1e-06 for instance and model parameters
Doing analysis at TEMP = 27.000000 and TNOM = 27.000000

Using SPARSE 1.3 as Direct Linear Solver
 Reference value :  1.00000e+03
 Reference value :  3.54813e+04
 Reference value :  7.94328e+05
 Reference value :  5.01187e+07
No. of Data Rows : 101
a0                  =  8.617452e-03
 meas ac ugf when vout_mag=1 fall=1 failed!

 meas ac pm find 180+vout_phase when vout_mag=1 failed!

Doing analysis at TEMP = 27.000000 and TNOM = 27.000000

Using SPARSE 1.3 as Direct Linear Solver
 Reference value : -1.00000e-03
 Reference value :  0.00000e+00
 Reference value :  1.00000e-03
No. of Data Rows : 3
vout_offset         =  1.344447e+00
Doing analysis at TEMP = 27.000000 and TNOM = 27.000000

Using SPARSE 1.3 as Direct Linear Solver
 Reference value : -5.00000e-03
 Reference value : -4.00000e-03
 Reference value : -3.00000e-03
 Reference value : -2.00000e-03
 Reference value : -1.00000e-03
 Reference value :  0.00000e+00
 Reference value :  1.00000e-03
 Reference value :  2.00000e-03
 Reference value :  3.00000e-03
 Reference value :  4.00000e-03
 Reference value :  5.00000e-03
No. of Data Rows : 11
vin_offset          =  -6.104063e-04
Doing analysis at TEMP = 27.000000 and TNOM = 27.000000

Using SPARSE 1.3 as Direct Linear Solver

Initial Transient Solution
--------------------------

Node                                   Voltage
----                                   -------
vout                                   1.34372
vss                                          0
net2                                         0
net1                                       0.9
vdd                                        1.8
ibias                                   5839.5
vn                                         0.9
vp                                         0.9
x1.a_8862_4192.t27                     5837.28
x1.en.t0                                     0
x1.vss.t311                        5.36963e-05
x1.vss.t215                        0.000595296
x1.vdd.t97                                 1.8
x1.vdd.t96                                 1.8
x1.vdd.t44                                 1.8
x1.vdd.t95                                 1.8
x1.vdd.t93                                 1.8
x1.vdd.t94                                 1.8
x1.vdd.t47                                 1.8
x1.a_3868_4185.t39                    0.601177
x1.ibias.t10                            5839.5
x1.a_3329_8823.t39                    0.601182
x1.vss.t0                          4.22537e-05
x1.a_n1962_4406.t59                    1.34371
x1.ibias.t11                            5839.5
x1.vout.t21                            1.34372
x1.vss.t6                          1.46331e-05
x1.a_n1962_4406.t58                    1.34371
x1.ibias.t12                            5839.5
x1.vout.t53                            1.34372
x1.vss.t211                        4.76529e-05
x1.vss.t209                        4.77971e-05
x1.vss.t210                        4.79443e-05
x1.vss.t30                           0.0006054
x1.a_3329_8823.t38                    0.601182
x1.ibias.t13                            5839.5
x1.a_3868_4185.t38                    0.601177
x1.vss.t1                          3.98655e-05
x1.vss.t208                        1.44158e-05
x1.vss.t207                        1.44158e-05
x1.vss.t64                         3.81162e-05
x1.vdd.t92                                 1.8
x1.vdd.t91                                 1.8
x1.vdd.t71                                 1.8
x1.a_3868_4185.t37                    0.601177
x1.ibias.t14                            5839.5
x1.a_3329_8823.t8                     0.601182
x1.vss.t11                         3.75067e-05
x1.a_n735_8972.t23                     1.30699
x1.vp.t0                                   0.9
x1.a_3329_8823.t56                    0.601182
x1.vss.t2                          3.25818e-05
x1.vss.t310                         1.3283e-05
x1.en.t1                                     0
x1.a_n1962_4406.t123                   1.34371
x1.vss.t77                         1.47368e-05
x1.a_3868_4185.t36                    0.601177
x1.ibias.t15                            5839.5
x1.a_3329_8823.t17                    0.601182
x1.vss.t7                          4.78205e-05
x1.a_3329_8823.t66                    0.601182
x1.vn.t0                                   0.9
x1.a_n935_8875.t15                     1.30662
x1.vss.t4                           3.3778e-05
x1.vdd.t19                                 1.8
x1.a_n735_8972.t27                     1.30699
x1.vout.t67                            1.34372
x1.vdd.t15                                 1.8
x1.a_n1962_4406.t122                   1.34371
x1.en.t2                                     0
x1.vss.t309                         1.3283e-05
x1.vss.t8                          1.47228e-05
x1.a_3329_8823.t65                    0.601182
x1.vn.t1                                   0.9
x1.a_n935_8875.t14                     1.30662
x1.vss.t5                          3.16934e-05
x1.vdd.t36                                 1.8
x1.a_n735_8972.t28                     1.30699
x1.vout.t77                            1.34372
x1.vdd.t5                                  1.8
x1.vss.t206                        1.44158e-05
x1.vss.t205                        1.44158e-05
x1.a_3329_8823.t55                    0.601182
x1.a_n1962_4406.t57                    1.34371
x1.ibias.t16                            5839.5
x1.vout.t45                            1.34372
x1.vss.t212                        1.46646e-05
x1.a_n1962_4406.t56                    1.34371
x1.ibias.t17                            5839.5
x1.vout.t2                             1.34372
x1.vss.t308                         1.3283e-05
x1.en.t3                                     0
x1.a_n1962_4406.t121                   1.34371
x1.vss.t19                         1.46799e-05
x1.a_3329_8823.t43                    0.601182
x1.vn.t2                                   0.9
x1.a_n935_8875.t13                     1.30662
x1.vdd.t90                                 1.8
x1.vdd.t89                                 1.8
x1.a_n1962_4406.t79                    1.34371
x1.vss.t203                        1.31486e-05
x1.vss.t204                        1.31486e-05
x1.vss.t20                         1.46946e-05
x1.a_n1962_4406.t120                   1.34371
x1.en.t4                                     0
x1.vss.t307                        1.33065e-05
x1.vout.t38                            1.34372
x1.ibias.t18                            5839.5
x1.a_n1962_4406.t55                    1.34371
x1.vss.t12                         1.47089e-05
x1.vss.t202                        1.31486e-05
x1.vss.t201                        1.31486e-05
x1.a_n1962_4406.t78                    1.34371
x1.vss.t56                          1.4722e-05
x1.vdd.t88                                 1.8
x1.vdd.t87                                 1.8
x1.a_n935_8875.t12                     1.30662
x1.vn.t3                                   0.9
x1.a_3329_8823.t62                    0.601182
x1.vss.t84                         2.96202e-05
x1.vout.t46                            1.34372
x1.ibias.t19                            5839.5
x1.a_n1962_4406.t54                    1.34371
x1.vss.t9                          1.46489e-05
x1.vdd.t86                                 1.8
x1.vdd.t84                                 1.8
x1.vdd.t85                                 1.8
x1.a_3329_8823.t63                    0.601182
x1.vp.t1                                   0.9
x1.a_n735_8972.t22                     1.30699
x1.vss.t89                         3.64598e-05
x1.vss.t306                        1.33065e-05
x1.en.t5                                     0
x1.a_n1962_4406.t119                   1.34371
x1.vdd.t17                                 1.8
x1.a_n735_8972.t29                     1.30699
x1.vout.t65                            1.34372
x1.vdd.t16                                 1.8
x1.a_n735_8972.t30                     1.30699
x1.vout.t64                            1.34372
x1.vss.t198                        1.31486e-05
x1.vss.t197                        1.31486e-05
x1.a_n1962_4406.t53                    1.34371
x1.ibias.t20                            5839.5
x1.vout.t42                            1.34372
x1.vss.t45                         1.46295e-05
x1.vout.t35                            1.34372
x1.ibias.t21                            5839.5
x1.a_n1962_4406.t52                    1.34371
x1.vss.t16                         1.46051e-05
x1.vss.t200                        1.28649e-05
x1.vss.t199                        1.28649e-05
x1.a_3868_4185.t55                    0.601177
x1.vss.t27                         6.66724e-05
x1.vss.t196                        1.28649e-05
x1.vss.t195                        1.28649e-05
x1.a_3868_4185.t54                    0.601177
x1.a_n1962_4406.t77                    1.34371
x1.vss.t193                        1.31486e-05
x1.vss.t194                        1.31486e-05
x1.vss.t38                          1.4752e-05
x1.a_3329_8823.t42                    0.601182
x1.vn.t4                                   0.9
x1.a_n935_8875.t11                     1.30662
x1.a_n1962_4406.t118                   1.34371
x1.en.t6                                     0
x1.vss.t305                         1.3283e-05
x1.vss.t15                         1.46068e-05
x1.a_n1962_4406.t117                   1.34371
x1.en.t7                                     0
x1.vss.t304                        1.32359e-05
x1.vss.t192                        5.86103e-05
x1.vss.t191                        5.86088e-05
x1.vss.t22                         0.000336179
x1.a_n735_8972.t21                     1.30699
x1.vp.t2                                   0.9
x1.a_3329_8823.t73                    0.601182
x1.vss.t313                         3.9656e-05
x1.a_n1962_4406.t51                    1.34371
x1.ibias.t22                            5839.5
x1.vout.t9                             1.34372
x1.a_n1962_4406.t116                   1.34371
x1.en.t8                                     0
x1.vss.t303                        1.31888e-05
x1.a_3329_8823.t35                    0.601182
x1.ibias.t23                            5839.5
x1.a_3868_4185.t35                    0.601177
x1.vss.t14                         3.51139e-05
x1.ibias.t7                             5839.5
x1.ibias.t6                             5839.5
x1.a_8862_4192.t0                      5837.28
x1.vss.t214                        0.000651196
x1.vss.t302                        5.40656e-05
x1.en.t9                                     0
x1.a_8862_4192.t26                     5837.28
x1.a_n935_8875.t33                     1.30662
x1.a_n935_8875.t32                     1.30662
x1.vdd.t110                                1.8
x1.vdd.t8                                  1.8
x1.a_n1962_4406.t50                    1.34371
x1.ibias.t24                            5839.5
x1.vout.t3                             1.34372
x1.vss.t190                        1.31486e-05
x1.vss.t188                        1.31486e-05
x1.vss.t189                        1.31486e-05
x1.vout.t0                             1.34372
x1.ibias.t25                            5839.5
x1.a_n1962_4406.t49                    1.34371
x1.vout.t6                             1.34372
x1.ibias.t26                            5839.5
x1.a_n1962_4406.t48                    1.34371
x1.a_3868_4185.t53                    0.601177
x1.vss.t186                        1.28649e-05
x1.vss.t187                        1.28649e-05
x1.vss.t51                         3.25822e-05
x1.a_8862_4192.t25                     5837.28
x1.en.t10                                    0
x1.vss.t301                        4.98223e-05
x1.vss.t219                        0.000659084
x1.vss.t185                        5.00024e-05
x1.vss.t183                        5.00485e-05
x1.vss.t184                        5.01781e-05
x1.vdd.t7                                  1.8
x1.a_n735_8972.t31                     1.30699
x1.vout.t62                            1.34372
x1.a_n735_8972.t7                      1.30699
x1.x62.x0.t1                           1.30699
x1.x62.x0.t2                           1.30699
x1.a_9909_7861.t0                      1.30699
x1.vss.t218                        9.43163e-05
x1.x62.x0.rbody_3                            0
x1.a_3868_4185.t34                    0.601177
x1.ibias.t27                            5839.5
x1.a_3329_8823.t4                     0.601182
x1.vss.t10                         5.82049e-05
x1.a_8862_4192.t3                      5837.28
x1.ibias.t4                             5839.5
x1.ibias.t5                             5839.5
x1.vss.t300                        1.33301e-05
x1.en.t11                                    0
x1.a_n1962_4406.t115                   1.34371
x1.vss.t17                         1.46182e-05
x1.a_n1962_4406.t114                   1.34371
x1.en.t12                                    0
x1.vss.t299                        1.32123e-05
x1.vss.t182                        1.31486e-05
x1.vss.t181                        1.31486e-05
x1.a_n735_8972.t24                     1.30699
x1.a_n935_8875.t34                     1.30662
x1.vdd.t103                                1.8
x1.vdd.t30                                 1.8
x1.vss.t180                        1.44158e-05
x1.vss.t179                        1.44158e-05
x1.a_3329_8823.t54                    0.601182
x1.a_3329_8823.t2                     0.601182
x1.ibias.t28                            5839.5
x1.a_3868_4185.t33                    0.601177
x1.vss.t13                         5.25806e-05
x1.vss.t178                        5.97223e-05
x1.vss.t177                        5.97208e-05
x1.vss.t293                        1.29398e-05
x1.en.t13                                    0
x1.a_3868_4185.t79                    0.601177
x1.vss.t18                         4.47685e-05
x1.a_n935_8875.t10                     1.30662
x1.vn.t5                                   0.9
x1.a_3329_8823.t64                    0.601182
x1.vss.t298                        1.32123e-05
x1.en.t14                                    0
x1.a_n1962_4406.t113                   1.34371
x1.vss.t176                        1.31486e-05
x1.vss.t175                        1.31486e-05
x1.a_n1962_4406.t76                    1.34371
x1.a_3329_8823.t71                    0.601182
x1.vn.t6                                   0.9
x1.a_n935_8875.t9                      1.30662
x1.vdd.t83                                 1.8
x1.vdd.t82                                 1.8
x1.a_3868_4185.t78                    0.601177
x1.en.t15                                    0
x1.vss.t297                        1.29398e-05
x1.a_3868_4185.t77                    0.601177
x1.en.t16                                    0
x1.vss.t296                        1.29398e-05
x1.vdd.t33                                 1.8
x1.a_n735_8972.t32                     1.30699
x1.vout.t75                            1.34372
x1.vss.t295                         5.3696e-05
x1.en.t17                                    0
x1.a_8862_4192.t24                     5837.28
x1.a_3329_8823.t28                    0.601182
x1.ibias.t29                            5839.5
x1.a_3868_4185.t32                    0.601177
x1.a_3329_8823.t77                    0.601182
x1.vp.t3                                   0.9
x1.a_n735_8972.t20                     1.30699
x1.vdd.t105                                1.8
x1.a_n735_8972.t33                     1.30699
x1.vout.t86                            1.34372
x1.a_3868_4185.t31                    0.601177
x1.ibias.t30                            5839.5
x1.a_3329_8823.t11                    0.601182
x1.a_n1962_4406.t112                   1.34371
x1.en.t18                                    0
x1.vss.t294                        1.32594e-05
x1.a_8862_4192.t23                     5837.28
x1.en.t19                                    0
x1.vss.t292                        4.79451e-05
x1.vss.t174                        4.80816e-05
x1.vss.t172                        4.80935e-05
x1.vss.t173                        4.81085e-05
x1.a_3329_8823.t12                    0.601182
x1.ibias.t31                            5839.5
x1.a_3868_4185.t30                    0.601177
x1.a_3868_4185.t52                    0.601177
x1.vss.t170                        1.28649e-05
x1.vss.t171                        1.28649e-05
x1.vout.t49                            1.34372
x1.ibias.t32                            5839.5
x1.a_n1962_4406.t47                    1.34371
x1.vout.t28                            1.34372
x1.ibias.t33                            5839.5
x1.a_n1962_4406.t46                    1.34371
x1.a_n1962_4406.t45                    1.34371
x1.ibias.t34                            5839.5
x1.vout.t57                            1.34372
x1.a_3868_4185.t76                    0.601177
x1.en.t20                                    0
x1.vss.t291                        1.29398e-05
x1.a_3329_8823.t61                    0.601182
x1.vp.t4                                   0.9
x1.a_n735_8972.t19                     1.30699
x1.vout.t69                            1.34372
x1.a_n735_8972.t34                     1.30699
x1.vdd.t23                                 1.8
x1.vdd.t13                                 1.8
x1.vss.t130                        1.31486e-05
x1.vss.t129                        1.31486e-05
x1.a_3868_4185.t75                    0.601177
x1.en.t21                                    0
x1.vss.t290                        1.29398e-05
x1.vss.t289                        1.29398e-05
x1.en.t22                                    0
x1.a_3868_4185.t74                    0.601177
x1.vout.t54                            1.34372
x1.ibias.t35                            5839.5
x1.a_n1962_4406.t44                    1.34371
x1.a_3868_4185.t29                    0.601177
x1.ibias.t36                            5839.5
x1.a_3329_8823.t18                    0.601182
x1.vss.t169                        1.31486e-05
x1.vss.t168                        1.31486e-05
x1.a_n1962_4406.t43                    1.34371
x1.ibias.t37                            5839.5
x1.vout.t52                            1.34372
x1.vout.t25                            1.34372
x1.ibias.t38                            5839.5
x1.a_n1962_4406.t42                    1.34371
x1.vss.t167                        1.31486e-05
x1.vss.t166                        1.31486e-05
x1.vout.t26                            1.34372
x1.ibias.t39                            5839.5
x1.a_n1962_4406.t41                    1.34371
x1.vss.t165                        1.31486e-05
x1.vss.t164                        1.31486e-05
x1.a_n1962_4406.t75                    1.34371
x1.vss.t288                        1.33065e-05
x1.en.t23                                    0
x1.a_n1962_4406.t111                   1.34371
x1.a_n935_8875.t8                      1.30662
x1.vn.t7                                   0.9
x1.a_3329_8823.t46                    0.601182
x1.vss.t3                          3.50729e-05
x1.vdd.t81                                 1.8
x1.vdd.t80                                 1.8
x1.vss.t287                        1.32359e-05
x1.en.t24                                    0
x1.a_n1962_4406.t110                   1.34371
x1.vss.t286                        1.31888e-05
x1.en.t25                                    0
x1.a_n1962_4406.t109                   1.34371
x1.vdd.t106                                1.8
x1.a_n935_8875.t35                     1.30662
x1.a_n735_8972.t25                     1.30699
x1.vdd.t11                                 1.8
x1.a_n1962_4406.t40                    1.34371
x1.ibias.t40                            5839.5
x1.vout.t58                            1.34372
x1.vss.t163                        1.44158e-05
x1.vss.t161                        1.44158e-05
x1.vss.t162                         4.4534e-05
x1.vdd.t25                                 1.8
x1.a_n735_8972.t35                     1.30699
x1.vout.t71                            1.34372
x1.vss.t160                        1.31486e-05
x1.vss.t158                        1.31486e-05
x1.vss.t159                        1.31486e-05
x1.a_n1962_4406.t108                   1.34371
x1.en.t26                                    0
x1.vss.t285                        1.32359e-05
x1.a_3329_8823.t27                    0.601182
x1.ibias.t41                            5839.5
x1.a_3868_4185.t28                    0.601177
x1.a_n935_8875.t31                     1.30662
x1.a_n935_8875.t30                     1.30662
x1.vdd.t37                                 1.8
x1.a_n1962_4406.t39                    1.34371
x1.ibias.t42                            5839.5
x1.vout.t13                            1.34372
x1.vout.t16                            1.34372
x1.ibias.t43                            5839.5
x1.a_n1962_4406.t38                    1.34371
x1.a_n1962_4406.t37                    1.34371
x1.ibias.t44                            5839.5
x1.vout.t22                            1.34372
x1.a_n1962_4406.t107                   1.34371
x1.en.t27                                    0
x1.vss.t284                        1.31888e-05
x1.a_3329_8823.t0                     0.601182
x1.ibias.t45                            5839.5
x1.a_3868_4185.t27                    0.601177
x1.a_n735_8972.t18                     1.30699
x1.vp.t5                                   0.9
x1.a_3329_8823.t47                    0.601182
x1.vss.t157                        1.44158e-05
x1.vss.t155                        1.44158e-05
x1.a_n735_8972.t4                      1.30699
x1.vss.t156                        4.20378e-05
x1.vout.t73                            1.34372
x1.a_n735_8972.t36                     1.30699
x1.vdd.t27                                 1.8
x1.a_n1962_4406.t36                    1.34371
x1.ibias.t46                            5839.5
x1.vout.t39                            1.34372
x1.a_n1962_4406.t106                   1.34371
x1.en.t28                                    0
x1.vss.t280                        1.32594e-05
x1.vss.t281                        1.32359e-05
x1.en.t29                                    0
x1.a_n1962_4406.t105                   1.34371
x1.vss.t283                        1.31888e-05
x1.en.t30                                    0
x1.a_n1962_4406.t104                   1.34371
x1.vss.t282                        5.40655e-05
x1.en.t31                                    0
x1.a_8862_4192.t22                     5837.28
x1.a_3329_8823.t53                    0.601182
x1.vss.t153                        1.44158e-05
x1.vss.t154                        1.44158e-05
x1.vss.t61                         2.71039e-05
x1.vout.t14                            1.34372
x1.ibias.t47                            5839.5
x1.a_n1962_4406.t35                    1.34371
x1.vss.t152                        1.31486e-05
x1.vss.t151                        1.31486e-05
x1.a_n1962_4406.t74                    1.34371
x1.vout.t17                            1.34372
x1.ibias.t48                            5839.5
x1.a_n1962_4406.t34                    1.34371
x1.vss.t150                        1.31486e-05
x1.vss.t149                        1.31486e-05
x1.vss.t279                        1.32594e-05
x1.en.t32                                    0
x1.a_n1962_4406.t103                   1.34371
x1.a_n1962_4406.t33                    1.34371
x1.ibias.t49                            5839.5
x1.vout.t50                            1.34372
x1.a_3868_4185.t73                    0.601177
x1.en.t33                                    0
x1.vss.t278                        1.29398e-05
x1.vss.t274                        1.29398e-05
x1.en.t34                                    0
x1.a_3868_4185.t72                    0.601177
x1.vss.t277                        1.29398e-05
x1.en.t35                                    0
x1.a_3868_4185.t71                    0.601177
x1.a_n935_8875.t29                     1.30662
x1.a_n935_8875.t28                     1.30662
x1.vdd.t29                                 1.8
x1.vdd.t79                                 1.8
x1.vdd.t78                                 1.8
x1.a_n1962_4406.t32                    1.34371
x1.ibias.t50                            5839.5
x1.vout.t29                            1.34372
x1.a_8862_4192.t21                     5837.28
x1.en.t36                                    0
x1.vss.t276                        5.01789e-05
x1.a_3868_4185.t70                    0.601177
x1.en.t37                                    0
x1.vss.t275                        1.29398e-05
x1.vss.t148                        1.28649e-05
x1.vss.t147                        1.28649e-05
x1.a_3868_4185.t51                    0.601177
x1.vdd.t22                                 1.8
x1.a_n935_8875.t26                     1.30662
x1.a_n935_8875.t27                     1.30662
x1.vdd.t0                                  1.8
x1.vout.t23                            1.34372
x1.ibias.t51                            5839.5
x1.a_n1962_4406.t31                    1.34371
x1.vss.t273                        1.29398e-05
x1.en.t38                                    0
x1.a_3868_4185.t69                    0.601177
x1.a_3868_4185.t50                    0.601177
x1.vss.t145                        1.28649e-05
x1.vss.t146                        1.28649e-05
x1.vss.t144                        4.94508e-05
x1.vss.t142                        4.95038e-05
x1.vss.t143                        4.95598e-05
x1.a_3868_4185.t49                    0.601177
x1.vss.t140                        1.28649e-05
x1.vss.t141                        1.28649e-05
x1.vss.t272                        1.29398e-05
x1.en.t39                                    0
x1.a_3868_4185.t68                    0.601177
x1.vss.t271                         1.3283e-05
x1.en.t40                                    0
x1.a_n1962_4406.t102                   1.34371
x1.a_3868_4185.t26                    0.601177
x1.ibias.t52                            5839.5
x1.a_3329_8823.t14                    0.601182
x1.a_3868_4185.t25                    0.601177
x1.ibias.t53                            5839.5
x1.a_3329_8823.t24                    0.601182
x1.a_3329_8823.t67                    0.601182
x1.vn.t8                                   0.9
x1.a_n935_8875.t7                      1.30662
x1.vss.t217                        3.72957e-05
x1.a_3868_4185.t24                    0.601177
x1.ibias.t54                            5839.5
x1.a_3329_8823.t34                    0.601182
x1.vdd.t77                                 1.8
x1.vdd.t76                                 1.8
x1.a_n1962_4406.t73                    1.34371
x1.vss.t138                        1.31486e-05
x1.vss.t139                        1.31486e-05
x1.a_n1962_4406.t72                    1.34371
x1.vss.t136                        1.31486e-05
x1.vss.t137                        1.31486e-05
x1.ibias.t3                             5839.5
x1.ibias.t2                             5839.5
x1.a_8862_4192.t2                      5837.28
x1.vss.t216                        0.000493073
x1.vss.t270                        5.83116e-05
x1.en.t41                                    0
x1.a_8862_4192.t20                     5837.28
x1.a_3868_4185.t23                    0.601177
x1.ibias.t55                            5839.5
x1.a_3329_8823.t5                     0.601182
x1.a_3329_8823.t9                     0.601182
x1.ibias.t56                            5839.5
x1.a_3868_4185.t22                    0.601177
x1.a_n1962_4406.t101                   1.34371
x1.en.t42                                    0
x1.vss.t269                        1.32359e-05
x1.a_n1962_4406.t100                   1.34371
x1.en.t43                                    0
x1.vss.t268                        1.31888e-05
x1.a_3329_8823.t13                    0.601182
x1.ibias.t57                            5839.5
x1.a_3868_4185.t21                    0.601177
x1.vdd.t75                                 1.8
x1.vdd.t73                                 1.8
x1.vdd.t74                                 1.8
x1.vdd.t40                                 1.8
x1.vss.t267                        5.36962e-05
x1.en.t44                                    0
x1.a_8862_4192.t19                     5837.28
x1.a_8862_4192.t18                     5837.28
x1.en.t45                                    0
x1.vss.t266                        5.40656e-05
x1.vdd.t101                                1.8
x1.a_n735_8972.t37                     1.30699
x1.vout.t83                            1.34372
x1.a_n1962_4406.t30                    1.34371
x1.ibias.t58                            5839.5
x1.vout.t55                            1.34372
x1.a_8862_4192.t1                      5837.28
x1.ibias.t0                             5839.5
x1.ibias.t1                             5839.5
x1.a_3329_8823.t1                     0.601182
x1.ibias.t59                            5839.5
x1.a_3868_4185.t20                    0.601177
x1.vdd.t109                                1.8
x1.a_n935_8875.t36                     1.30662
x1.a_n735_8972.t26                     1.30699
x1.a_8862_4192.t17                     5837.28
x1.en.t46                                    0
x1.vss.t265                        4.81092e-05
x1.vss.t135                        4.84386e-05
x1.vss.t133                        4.83899e-05
x1.vss.t134                        4.83443e-05
x1.vout.t81                            1.34372
x1.a_n735_8972.t38                     1.30699
x1.vdd.t99                                 1.8
x1.vss.t128                        1.28649e-05
x1.vss.t127                        1.28649e-05
x1.a_3868_4185.t48                    0.601177
x1.a_3868_4185.t47                    0.601177
x1.vss.t131                        1.28649e-05
x1.vss.t132                        1.28649e-05
x1.a_n935_8875.t25                     1.30662
x1.a_n935_8875.t24                     1.30662
x1.vdd.t31                                 1.8
x1.a_3868_4185.t19                    0.601177
x1.ibias.t60                            5839.5
x1.a_3329_8823.t25                    0.601182
x1.a_3329_8823.t52                    0.601182
x1.vss.t125                        1.44158e-05
x1.vss.t126                        1.44158e-05
x1.vss.t248                        6.02695e-05
x1.en.t47                                    0
x1.a_8862_4192.t16                     5837.28
x1.a_3329_8823.t6                     0.601182
x1.ibias.t61                            5839.5
x1.a_3868_4185.t18                    0.601177
x1.vdd.t72                                 1.8
x1.vdd.t70                                 1.8
x1.a_3868_4185.t67                    0.601177
x1.en.t48                                    0
x1.vss.t264                        1.29398e-05
x1.vout.t63                            1.34372
x1.a_n735_8972.t39                     1.30699
x1.vdd.t14                                 1.8
x1.vout.t68                            1.34372
x1.a_n735_8972.t40                     1.30699
x1.vdd.t20                                 1.8
x1.vdd.t2                                  1.8
x1.a_n1962_4406.t99                    1.34371
x1.en.t49                                    0
x1.vss.t263                        1.32123e-05
x1.a_8862_4192.t15                     5837.28
x1.en.t50                                    0
x1.vss.t262                         5.3696e-05
x1.vss.t124                        1.44158e-05
x1.vss.t123                        1.44158e-05
x1.a_3329_8823.t51                    0.601182
x1.a_n1962_4406.t98                    1.34371
x1.en.t51                                    0
x1.vss.t261                        1.31653e-05
x1.vdd.t69                                 1.8
x1.vdd.t67                                 1.8
x1.vdd.t68                                 1.8
x1.a_3329_8823.t58                    0.601182
x1.vp.t6                                   0.9
x1.a_n735_8972.t17                     1.30699
x1.vss.t122                        1.31486e-05
x1.vss.t121                        1.31486e-05
x1.a_n1962_4406.t71                    1.34371
x1.a_3329_8823.t79                    0.601182
x1.vn.t9                                   0.9
x1.a_n935_8875.t6                      1.30662
x1.vout.t40                            1.34372
x1.ibias.t62                            5839.5
x1.a_n1962_4406.t29                    1.34371
x1.a_n935_8875.t5                      1.30662
x1.vn.t10                                  0.9
x1.a_3329_8823.t70                    0.601182
x1.vdd.t66                                 1.8
x1.vdd.t64                                 1.8
x1.vdd.t65                                 1.8
x1.a_n735_8972.t5                      1.30699
x1.a_n935_8875.t37                     1.30662
x1.vdd.t28                                 1.8
x1.vout.t66                            1.34372
x1.a_n735_8972.t41                     1.30699
x1.vdd.t18                                 1.8
x1.vss.t120                        1.31486e-05
x1.vss.t119                        1.31486e-05
x1.a_n1962_4406.t97                    1.34371
x1.en.t52                                    0
x1.vss.t260                        1.33065e-05
x1.a_n1962_4406.t28                    1.34371
x1.ibias.t63                            5839.5
x1.vout.t15                            1.34372
x1.vss.t118                        1.31486e-05
x1.vss.t117                        1.31486e-05
x1.vdd.t4                                  1.8
x1.a_n935_8875.t38                     1.30662
x1.a_n735_8972.t0                      1.30699
x1.a_n735_8972.t16                     1.30699
x1.vp.t7                                   0.9
x1.a_3329_8823.t74                    0.601182
x1.a_3329_8823.t75                    0.601182
x1.vp.t8                                   0.9
x1.a_n735_8972.t15                     1.30699
x1.a_n1962_4406.t96                    1.34371
x1.en.t53                                    0
x1.vss.t259                        1.33301e-05
x1.vdd.t63                                 1.8
x1.vdd.t61                                 1.8
x1.vdd.t62                                 1.8
x1.vss.t116                        1.31486e-05
x1.vss.t115                        1.31486e-05
x1.a_n1962_4406.t70                    1.34371
x1.a_n1962_4406.t27                    1.34371
x1.ibias.t64                            5839.5
x1.vout.t18                            1.34372
x1.vss.t258                        1.33065e-05
x1.en.t54                                    0
x1.a_n1962_4406.t95                    1.34371
x1.vout.t10                            1.34372
x1.ibias.t65                            5839.5
x1.a_n1962_4406.t26                    1.34371
x1.a_n735_8972.t14                     1.30699
x1.vp.t9                                   0.9
x1.a_3329_8823.t78                    0.601182
x1.a_3329_8823.t59                    0.601182
x1.vp.t10                                  0.9
x1.a_n735_8972.t13                     1.30699
x1.a_n735_8972.t12                     1.30699
x1.vp.t11                                  0.9
x1.a_3329_8823.t69                    0.601182
x1.a_n1962_4406.t69                    1.34371
x1.vss.t113                        1.31486e-05
x1.vss.t114                        1.31486e-05
x1.vss.t257                        1.32594e-05
x1.en.t55                                    0
x1.a_n1962_4406.t94                    1.34371
x1.a_n1962_4406.t68                    1.34371
x1.vss.t111                        1.31486e-05
x1.vss.t112                        1.31486e-05
x1.vout.t51                            1.34372
x1.ibias.t66                            5839.5
x1.a_n1962_4406.t25                    1.34371
x1.vout.t30                            1.34372
x1.ibias.t67                            5839.5
x1.a_n1962_4406.t24                    1.34371
x1.vout.t24                            1.34372
x1.ibias.t68                            5839.5
x1.a_n1962_4406.t23                    1.34371
x1.vss.t256                        5.40657e-05
x1.en.t56                                    0
x1.a_8862_4192.t14                     5837.28
x1.a_8862_4192.t13                     5837.28
x1.en.t57                                    0
x1.vss.t255                        4.95605e-05
x1.vdd.t21                                 1.8
x1.a_n935_8875.t22                     1.30662
x1.a_n935_8875.t23                     1.30662
x1.a_3329_8823.t50                    0.601182
x1.vss.t109                        1.44158e-05
x1.vss.t110                        1.44158e-05
x1.vout.t56                            1.34372
x1.ibias.t69                            5839.5
x1.a_n1962_4406.t22                    1.34371
x1.a_n1962_4406.t21                    1.34371
x1.ibias.t70                            5839.5
x1.vout.t20                            1.34372
x1.a_3329_8823.t16                    0.601182
x1.ibias.t71                            5839.5
x1.a_3868_4185.t17                    0.601177
x1.vss.t108                        1.28649e-05
x1.vss.t107                        1.28649e-05
x1.a_3868_4185.t46                    0.601177
x1.vout.t79                            1.34372
x1.a_n735_8972.t42                     1.30699
x1.vdd.t38                                 1.8
x1.vout.t34                            1.34372
x1.ibias.t72                            5839.5
x1.a_n1962_4406.t20                    1.34371
x1.a_n1962_4406.t19                    1.34371
x1.ibias.t73                            5839.5
x1.vout.t11                            1.34372
x1.vss.t106                        1.28649e-05
x1.vss.t105                        1.28649e-05
x1.a_3868_4185.t45                    0.601177
x1.vss.t104                        1.44158e-05
x1.vss.t101                        1.44158e-05
x1.vss.t103                        1.44158e-05
x1.vss.t102                        2.54002e-05
x1.a_n1962_4406.t18                    1.34371
x1.ibias.t74                            5839.5
x1.vout.t31                            1.34372
x1.vss.t100                        5.83142e-05
x1.vss.t99                         5.83126e-05
x1.vss.t254                        5.80096e-05
x1.en.t58                                    0
x1.a_8862_4192.t12                     5837.28
x1.vout.t8                             1.34372
x1.ibias.t75                            5839.5
x1.a_n1962_4406.t17                    1.34371
x1.a_n1962_4406.t16                    1.34371
x1.ibias.t76                            5839.5
x1.vout.t32                            1.34372
x1.a_n1962_4406.t15                    1.34371
x1.ibias.t77                            5839.5
x1.vout.t4                             1.34372
x1.a_3868_4185.t16                    0.601177
x1.ibias.t78                            5839.5
x1.a_3329_8823.t21                    0.601182
x1.vss.t98                           5.917e-05
x1.vss.t97                         5.91662e-05
x1.ibias.t9                             5839.5
x1.a_n1962_4406.t93                    1.34371
x1.en.t59                                    0
x1.vss.t253                        1.32123e-05
x1.vout.t19                            1.34372
x1.ibias.t79                            5839.5
x1.a_n1962_4406.t14                    1.34371
x1.a_n1962_4406.t92                    1.34371
x1.en.t60                                    0
x1.vss.t252                        1.31653e-05
x1.a_3868_4185.t15                    0.601177
x1.ibias.t80                            5839.5
x1.a_3329_8823.t36                    0.601182
x1.vss.t251                        5.36963e-05
x1.en.t61                                    0
x1.a_8862_4192.t11                     5837.28
x1.vdd.t60                                 1.8
x1.vdd.t58                                 1.8
x1.vdd.t59                                 1.8
x1.a_n735_8972.t11                     1.30699
x1.vp.t12                                  0.9
x1.a_3329_8823.t40                    0.601182
x1.vss.t250                        1.32123e-05
x1.en.t62                                    0
x1.a_n1962_4406.t91                    1.34371
x1.vss.t96                         1.31486e-05
x1.vss.t95                         1.31486e-05
x1.a_8862_4192.t10                     5837.28
x1.en.t63                                    0
x1.vss.t249                        5.40655e-05
x1.a_3868_4185.t14                    0.601177
x1.ibias.t81                            5839.5
x1.a_3329_8823.t32                    0.601182
x1.vss.t247                        1.31653e-05
x1.en.t64                                    0
x1.a_n1962_4406.t90                    1.34371
x1.a_3329_8823.t23                    0.601182
x1.ibias.t82                            5839.5
x1.a_3868_4185.t13                    0.601177
x1.a_8862_4192.t9                      5837.28
x1.en.t65                                    0
x1.vss.t246                        4.83451e-05
x1.vss.t245                        1.29398e-05
x1.en.t66                                    0
x1.a_3868_4185.t66                    0.601177
x1.a_n735_8972.t1                      1.30699
x1.a_n935_8875.t39                     1.30662
x1.vdd.t9                                  1.8
x1.vdd.t35                                 1.8
x1.a_n735_8972.t43                     1.30699
x1.vout.t76                            1.34372
x1.a_n1962_4406.t13                    1.34371
x1.ibias.t83                            5839.5
x1.vout.t43                            1.34372
x1.a_3329_8823.t45                    0.601182
x1.vn.t11                                  0.9
x1.a_n935_8875.t4                      1.30662
x1.vout.t88                            1.34372
x1.a_n735_8972.t44                     1.30699
x1.vdd.t108                                1.8
x1.vss.t244                        1.32359e-05
x1.en.t67                                    0
x1.a_n1962_4406.t89                    1.34371
x1.a_3868_4185.t12                    0.601177
x1.ibias.t84                            5839.5
x1.a_3329_8823.t10                    0.601182
x1.vss.t94                         1.28649e-05
x1.vss.t93                         1.28649e-05
x1.a_3868_4185.t44                    0.601177
x1.a_3868_4185.t43                    0.601177
x1.vss.t91                         1.28649e-05
x1.vss.t92                         1.28649e-05
x1.a_3329_8823.t7                     0.601182
x1.ibias.t85                            5839.5
x1.a_3868_4185.t11                    0.601177
x1.vdd.t10                                 1.8
x1.a_n935_8875.t40                     1.30662
x1.a_n735_8972.t2                      1.30699
x1.vss.t90                         1.44158e-05
x1.vss.t88                         1.44158e-05
x1.a_n935_8875.t17                     1.30662
x1.a_n935_8875.t3                      1.30662
x1.vn.t12                                  0.9
x1.a_3329_8823.t57                    0.601182
x1.vdd.t57                                 1.8
x1.vdd.t55                                 1.8
x1.vdd.t56                                 1.8
x1.vss.t243                        1.31888e-05
x1.en.t68                                    0
x1.a_n1962_4406.t88                    1.34371
x1.a_3868_4185.t10                    0.601177
x1.ibias.t86                            5839.5
x1.a_3329_8823.t3                     0.601182
x1.vss.t87                         6.03145e-05
x1.vss.t86                          6.0313e-05
x1.vss.t242                        6.00149e-05
x1.en.t69                                    0
x1.a_8862_4192.t8                      5837.28
x1.a_3329_8823.t29                    0.601182
x1.ibias.t87                            5839.5
x1.a_3868_4185.t9                     0.601177
x1.vout.t74                            1.34372
x1.a_n735_8972.t45                     1.30699
x1.vdd.t32                                 1.8
x1.a_3868_4185.t65                    0.601177
x1.en.t70                                    0
x1.vss.t241                        1.29398e-05
x1.vdd.t102                                1.8
x1.a_n735_8972.t46                     1.30699
x1.vout.t84                            1.34372
x1.a_8862_4192.t7                      5837.28
x1.en.t71                                    0
x1.vss.t240                        5.36962e-05
x1.vss.t239                        1.29398e-05
x1.en.t72                                    0
x1.a_3868_4185.t64                    0.601177
x1.vdd.t12                                 1.8
x1.a_n935_8875.t20                     1.30662
x1.a_n935_8875.t21                     1.30662
x1.a_n935_8875.t2                      1.30662
x1.vn.t13                                  0.9
x1.a_3329_8823.t68                    0.601182
x1.vdd.t54                                 1.8
x1.vdd.t53                                 1.8
x1.a_n935_8875.t16                     1.30662
x1.vss.t83                         1.44158e-05
x1.vss.t85                         1.44158e-05
x1.vss.t82                         1.31486e-05
x1.vss.t81                         1.31486e-05
x1.vout.t85                            1.34372
x1.a_n735_8972.t47                     1.30699
x1.vdd.t104                                1.8
x1.vss.t80                         1.31486e-05
x1.vss.t79                         1.31486e-05
x1.a_n1962_4406.t67                    1.34371
x1.a_3868_4185.t8                     0.601177
x1.ibias.t88                            5839.5
x1.a_3329_8823.t26                    0.601182
x1.vss.t78                         1.31486e-05
x1.vss.t76                         1.31486e-05
x1.vdd.t107                                1.8
x1.a_n735_8972.t48                     1.30699
x1.vout.t87                            1.34372
x1.a_n1962_4406.t66                    1.34371
x1.vss.t74                         1.31486e-05
x1.vss.t75                         1.31486e-05
x1.vss.t73                         1.44158e-05
x1.vss.t71                         1.44158e-05
x1.vss.t72                         1.44158e-05
x1.vdd.t24                                 1.8
x1.a_n735_8972.t49                     1.30699
x1.vout.t70                            1.34372
x1.vss.t238                        1.33301e-05
x1.en.t73                                    0
x1.a_n1962_4406.t87                    1.34371
x1.vss.t70                         1.31486e-05
x1.vss.t68                         1.31486e-05
x1.vss.t69                         1.31486e-05
x1.vout.t72                            1.34372
x1.a_n735_8972.t50                     1.30699
x1.vdd.t26                                 1.8
x1.vout.t41                            1.34372
x1.ibias.t89                            5839.5
x1.a_n1962_4406.t12                    1.34371
x1.a_n1962_4406.t65                    1.34371
x1.vss.t66                         1.31486e-05
x1.vss.t67                         1.31486e-05
x1.a_n1962_4406.t86                    1.34371
x1.en.t74                                    0
x1.vss.t237                         1.3283e-05
x1.vss.t65                         1.44158e-05
x1.vss.t63                         1.44158e-05
x1.a_3329_8823.t49                    0.601182
x1.a_3329_8823.t48                    0.601182
x1.vss.t60                         1.44158e-05
x1.vss.t62                         1.44158e-05
x1.a_n1962_4406.t11                    1.34371
x1.ibias.t90                            5839.5
x1.vout.t47                            1.34372
x1.vss.t59                         1.31486e-05
x1.vss.t58                         1.31486e-05
x1.a_n1962_4406.t64                    1.34371
x1.vdd.t1                                  1.8
x1.a_n935_8875.t18                     1.30662
x1.a_n935_8875.t19                     1.30662
x1.a_n735_8972.t10                     1.30699
x1.vp.t13                                  0.9
x1.a_3329_8823.t41                    0.601182
x1.a_n935_8875.t1                      1.30662
x1.vn.t14                                  0.9
x1.a_3329_8823.t72                    0.601182
x1.vss.t312                        3.48957e-05
x1.vdd.t52                                 1.8
x1.vdd.t50                                 1.8
x1.vdd.t51                                 1.8
x1.vout.t44                            1.34372
x1.ibias.t91                            5839.5
x1.a_n1962_4406.t10                    1.34371
x1.vss.t57                         1.31486e-05
x1.vss.t55                         1.31486e-05
x1.a_n1962_4406.t63                    1.34371
x1.a_3329_8823.t30                    0.601182
x1.ibias.t92                            5839.5
x1.a_3868_4185.t7                     0.601177
x1.vdd.t49                                 1.8
x1.vdd.t46                                 1.8
x1.vdd.t48                                 1.8
x1.vout.t82                            1.34372
x1.a_n735_8972.t51                     1.30699
x1.vdd.t100                                1.8
x1.vout.t36                            1.34372
x1.ibias.t93                            5839.5
x1.a_n1962_4406.t9                     1.34371
x1.vout.t37                            1.34372
x1.ibias.t94                            5839.5
x1.a_n1962_4406.t8                     1.34371
x1.a_3329_8823.t22                    0.601182
x1.ibias.t95                            5839.5
x1.a_3868_4185.t6                     0.601177
x1.a_3329_8823.t60                    0.601182
x1.vp.t14                                  0.9
x1.a_n735_8972.t9                      1.30699
x1.vss.t213                        3.23399e-05
x1.a_n1962_4406.t85                    1.34371
x1.en.t75                                    0
x1.vss.t236                        1.32594e-05
x1.a_9909_7861.t1                      1.30699
x1.vout.t78                            1.34372
x1.a_3868_4185.t42                    0.601177
x1.vss.t53                         1.28649e-05
x1.vss.t54                         1.28649e-05
x1.vout.t80                            1.34372
x1.a_n735_8972.t52                     1.30699
x1.vdd.t98                                 1.8
x1.a_n1962_4406.t7                     1.34371
x1.ibias.t96                            5839.5
x1.vout.t12                            1.34372
x1.a_n1962_4406.t6                     1.34371
x1.ibias.t97                            5839.5
x1.vout.t5                             1.34372
x1.a_3868_4185.t63                    0.601177
x1.en.t76                                    0
x1.vss.t235                        1.29398e-05
x1.vss.t234                        1.29398e-05
x1.en.t77                                    0
x1.a_3868_4185.t62                    0.601177
x1.vss.t233                        1.29398e-05
x1.en.t78                                    0
x1.a_3868_4185.t61                    0.601177
x1.a_3868_4185.t41                    0.601177
x1.vss.t50                         1.28649e-05
x1.vss.t52                         1.28649e-05
x1.a_n735_8972.t6                      1.30699
x1.a_n935_8875.t41                     1.30662
x1.vdd.t34                                 1.8
x1.a_n735_8972.t3                      1.30699
x1.vss.t47                         1.44158e-05
x1.vss.t49                         1.44158e-05
x1.vss.t48                         2.95429e-05
x1.a_n1962_4406.t84                    1.34371
x1.en.t79                                    0
x1.vss.t223                        1.33301e-05
x1.vss.t232                        1.32594e-05
x1.en.t80                                    0
x1.a_n1962_4406.t83                    1.34371
x1.vout.t1                             1.34372
x1.ibias.t98                            5839.5
x1.a_n1962_4406.t5                     1.34371
x1.vss.t46                         1.31486e-05
x1.vss.t44                         1.31486e-05
x1.vss.t43                         5.80257e-05
x1.vss.t42                         5.80645e-05
x1.a_3868_4185.t60                    0.601177
x1.en.t81                                    0
x1.vss.t231                        1.29398e-05
x1.a_3329_8823.t76                    0.601182
x1.vp.t15                                  0.9
x1.a_n735_8972.t8                      1.30699
x1.a_n1962_4406.t62                    1.34371
x1.vss.t40                         1.31486e-05
x1.vss.t41                         1.31486e-05
x1.vss.t228                        1.32123e-05
x1.en.t82                                    0
x1.a_n1962_4406.t82                    1.34371
x1.vout.t7                             1.34372
x1.ibias.t99                            5839.5
x1.a_n1962_4406.t4                     1.34371
x1.a_n1962_4406.t61                    1.34371
x1.vss.t37                         1.31486e-05
x1.vss.t39                         1.31486e-05
x1.vss.t230                        1.31653e-05
x1.en.t83                                    0
x1.a_n1962_4406.t81                    1.34371
x1.vss.t229                        1.29398e-05
x1.en.t84                                    0
x1.a_3868_4185.t59                    0.601177
x1.vss.t227                        5.86009e-05
x1.en.t85                                    0
x1.a_8862_4192.t6                      5837.28
x1.vss.t226                        1.29398e-05
x1.en.t86                                    0
x1.a_3868_4185.t58                    0.601177
x1.vss.t36                         1.31486e-05
x1.vss.t35                         1.31486e-05
x1.a_3868_4185.t5                     0.601177
x1.ibias.t100                           5839.5
x1.a_3329_8823.t15                    0.601182
x1.a_3868_4185.t4                     0.601177
x1.ibias.t101                           5839.5
x1.a_3329_8823.t37                    0.601182
x1.a_n1962_4406.t3                     1.34371
x1.ibias.t102                           5839.5
x1.vout.t48                            1.34372
x1.a_8862_4192.t5                      5837.28
x1.en.t87                                    0
x1.vss.t225                        5.40657e-05
x1.vout.t60                            1.34372
x1.a_n735_8972.t53                     1.30699
x1.vdd.t3                                  1.8
x1.vdd.t6                                  1.8
x1.a_n735_8972.t54                     1.30699
x1.vout.t61                            1.34372
x1.a_n1962_4406.t80                    1.34371
x1.en.t88                                    0
x1.vss.t224                        1.33065e-05
x1.a_3329_8823.t33                    0.601182
x1.ibias.t103                           5839.5
x1.a_3868_4185.t3                     0.601177
x1.ibias.t8                             5839.5
x1.vss.t33                         4.89458e-05
x1.vss.t34                         4.89496e-05
x1.vss.t32                         4.97818e-05
x1.vss.t29                         4.98002e-05
x1.vss.t31                         4.98215e-05
x1.vout.t33                            1.34372
x1.ibias.t104                           5839.5
x1.a_n1962_4406.t2                     1.34371
x1.a_3329_8823.t20                    0.601182
x1.ibias.t105                           5839.5
x1.a_3868_4185.t2                     0.601177
x1.vss.t28                         1.28649e-05
x1.vss.t26                         1.28649e-05
x1.a_3868_4185.t40                    0.601177
x1.vdd.t45                                 1.8
x1.vdd.t43                                 1.8
x1.vdd.t42                                 1.8
x1.vdd.t39                                 1.8
x1.vdd.t41                                 1.8
x1.a_3868_4185.t1                     0.601177
x1.ibias.t106                           5839.5
x1.a_3329_8823.t31                    0.601182
x1.a_3868_4185.t57                    0.601177
x1.en.t89                                    0
x1.vss.t222                        1.29398e-05
x1.a_3329_8823.t19                    0.601182
x1.ibias.t107                           5839.5
x1.a_3868_4185.t0                     0.601177
x1.a_3868_4185.t56                    0.601177
x1.en.t90                                    0
x1.vss.t221                        1.29398e-05
x1.a_n1962_4406.t1                     1.34371
x1.ibias.t108                           5839.5
x1.vout.t27                            1.34372
x1.vss.t25                         1.31486e-05
x1.vss.t24                         1.31486e-05
x1.a_n1962_4406.t60                    1.34371
x1.vss.t23                         6.00184e-05
x1.vss.t21                         6.00169e-05
x1.vss.t220                        5.97327e-05
x1.en.t91                                    0
x1.a_8862_4192.t4                      5837.28
x1.a_n935_8875.t0                      1.30662
x1.vn.t15                                  0.9
x1.a_3329_8823.t44                    0.601182
x1.a_n1962_4406.t0                     1.34371
x1.ibias.t109                           5839.5
x1.vout.t59                            1.34372
x1.en.n0                                     0
x1.en.n3                                     0
x1.en.n7                                     0
x1.en.n11                                    0
x1.en.n15                                    0
x1.en.n38                                    0
x1.en.n41                                    0
x1.en.n44                                    0
x1.en.n50                                    0
x1.en.n56                                    0
x1.en.n62                                    0
x1.en.n68                                    0
x1.en.n74                                    0
x1.en.n80                                    0
x1.en.n19                                    0
x1.en.n22                                    0
x1.en.n26                                    0
x1.en.n30                                    0
x1.en.n34                                    0
x1.en.n87                                    0
x1.en.n89                                    0
x1.en.n88                                    0
x1.en.n2                                     0
x1.en.n1                                     0
x1.en.n5                                     0
x1.en.n4                                     0
x1.en.n9                                     0
x1.en.n8                                     0
x1.en.n13                                    0
x1.en.n12                                    0
x1.en.n17                                    0
x1.en.n16                                    0
x1.en.n39                                    0
x1.en.n40                                    0
x1.en.n42                                    0
x1.en.n43                                    0
x1.en.n45                                    0
x1.en.n46                                    0
x1.en.n47                                    0
x1.en.n48                                    0
x1.en.n51                                    0
x1.en.n52                                    0
x1.en.n53                                    0
x1.en.n54                                    0
x1.en.n57                                    0
x1.en.n58                                    0
x1.en.n59                                    0
x1.en.n60                                    0
x1.en.n63                                    0
x1.en.n64                                    0
x1.en.n65                                    0
x1.en.n66                                    0
x1.en.n69                                    0
x1.en.n70                                    0
x1.en.n71                                    0
x1.en.n72                                    0
x1.en.n75                                    0
x1.en.n76                                    0
x1.en.n77                                    0
x1.en.n78                                    0
x1.en.n81                                    0
x1.en.n82                                    0
x1.en.n20                                    0
x1.en.n21                                    0
x1.en.n23                                    0
x1.en.n24                                    0
x1.en.n27                                    0
x1.en.n28                                    0
x1.en.n31                                    0
x1.en.n32                                    0
x1.en.n35                                    0
x1.en.n36                                    0
x1.en.n84                                    0
x1.en.n83                                    0
ven                                          0
x1.en.n90                                    0
x1.en.n49                                    0
x1.en.n25                                    0
x1.en.n29                                    0
x1.en.n37                                    0
x1.en.n6                                     0
x1.en.n61                                    0
x1.en.n73                                    0
x1.en.n10                                    0
x1.en.n14                                    0
x1.en.n18                                    0
x1.en.n33                                    0
x1.en.n55                                    0
x1.en.n67                                    0
x1.en.n79                                    0
x1.en.n86                                    0
x1.en.n85                                    0
x1.vss.n1977                       4.04473e-05
x1.vss.n1888                       9.38074e-05
x1.vss.n2092                       2.38287e-05
x1.vss.n1496                       1.47699e-05
x1.vss.n2383                        0.00022055
x1.vss.n123                        0.000175168
x1.vss.n1376                       1.47536e-05
x1.vss.n719                        1.47621e-05
x1.vss.n1211                       1.43736e-05
x1.vss.n825                        1.42606e-05
x1.vss.n2192                        4.3985e-05
x1.vss.n243                         4.4997e-05
x1.vss.n2109                       2.19683e-05
x1.vss.n668                        1.96472e-05
x1.vss.n2129                       3.25328e-05
x1.vss.n317                        3.14136e-05
x1.vss.n661                        3.13702e-05
x1.vss.n314                        3.24667e-05
x1.vss.n2337                       0.000579964
x1.vss.n165                        0.000564937
x1.vss.n1494                       1.47621e-05
x1.vss.n722                        1.47539e-05
x1.vss.n1905                       3.95177e-05
x1.vss.n1529                       3.84583e-05
x1.vss.n187                        0.000561531
x1.vss.n167                        0.000574538
x1.vss.n2224                       7.08336e-05
x1.vss.n213                        7.62128e-05
x1.vss.n590                        5.42839e-05
x1.vss.n211                        5.55507e-05
x1.vss.n1207                        1.4809e-05
x1.vss.n826                        1.48897e-05
x1.vss.n2090                       2.50828e-05
x1.vss.n1499                       2.64455e-05
x1.vss.n1886                       9.38943e-05
x1.vss.n1534                       9.39431e-05
x1.vss.n1879                       9.38945e-05
x1.vss.n1878                       9.39438e-05
x1.vss.n1639                        0.00025823
x1.vss.n127                        0.000302382
x1.vss.n524                        8.01547e-05
x1.vss.n523                        8.00002e-05
x1.vss.n568                        7.38003e-05
x1.vss.n567                        7.55422e-05
x1.vss.n1663                       0.000214017
x1.vss.n1662                       0.000216593
x1.vss.n1707                       0.000186832
x1.vss.n1706                       0.000191855
x1.vss.n2335                       0.000556161
x1.vss.n2226                       8.11199e-05
x1.vss.n164                        0.000570075
x1.vss.n2333                       0.000562846
x1.vss.n2332                       0.000568213
x1.vss.n2331                       0.000566585
x1.vss.n2227                       0.000561642
x1.vss.n2330                       0.000565174
x1.vss.n2329                       0.000560801
x1.vss.n2328                       0.000563954
x1.vss.n2327                       0.000560141
x1.vss.n2326                       0.000559592
x1.vss.n2325                       0.000562901
x1.vss.n2324                       0.000561993
x1.vss.n2323                       0.000559126
x1.vss.n2322                       0.000558727
x1.vss.n2321                        0.00056121
x1.vss.n2320                       0.000560536
x1.vss.n2319                       0.000558384
x1.vss.n2318                       0.000558089
x1.vss.n2317                       0.000559956
x1.vss.n2316                       0.000559458
x1.vss.n2315                       0.000557836
x1.vss.n2314                       0.000557619
x1.vss.n2313                       0.000559031
x1.vss.n2312                       0.000558665
x1.vss.n2311                       0.000557433
x1.vss.n2310                       0.000557275
x1.vss.n2309                       0.000558354
x1.vss.n2308                       0.000558089
x1.vss.n2307                       0.000557141
x1.vss.n2306                       0.000557027
x1.vss.n2305                       0.000557866
x1.vss.n2304                        0.00055768
x1.vss.n2303                       0.000556933
x1.vss.n2302                       0.000556855
x1.vss.n2301                       0.000557527
x1.vss.n2300                       0.000557402
x1.vss.n2299                       0.000556792
x1.vss.n2298                       0.000556742
x1.vss.n2297                       0.000557305
x1.vss.n2296                       0.000557232
x1.vss.n2295                       0.000556705
x1.vss.n2294                        0.00055668
x1.vss.n2293                       0.000557183
x1.vss.n2292                       0.000557155
x1.vss.n2291                       0.000556666
x1.vss.n2290                       0.000556663
x1.vss.n2289                       0.000557149
x1.vss.n2288                       0.000557164
x1.vss.n2287                        0.00055667
x1.vss.n2286                       0.000556689
x1.vss.n2285                         0.0005572
x1.vss.n2284                       0.000557259
x1.vss.n2283                       0.000556719
x1.vss.n2282                       0.000556761
x1.vss.n2281                       0.000557342
x1.vss.n2280                        0.00055745
x1.vss.n2279                       0.000556816
x1.vss.n2278                       0.000556885
x1.vss.n2277                       0.000557585
x1.vss.n2276                       0.000557752
x1.vss.n2275                       0.000556969
x1.vss.n2274                       0.000557071
x1.vss.n2273                       0.000557952
x1.vss.n2272                       0.000558191
x1.vss.n2271                       0.000557193
x1.vss.n2270                       0.000557337
x1.vss.n2269                       0.000558474
x1.vss.n2268                       0.000558807
x1.vss.n2267                       0.000557506
x1.vss.n2266                       0.000557706
x1.vss.n2265                       0.000559196
x1.vss.n2264                       0.000559651
x1.vss.n2263                       0.000557941
x1.vss.n2262                       0.000558224
x1.vss.n2261                       0.000560181
x1.vss.n2260                       0.000560796
x1.vss.n2259                       0.000558579
x1.vss.n2258                       0.000559069
x1.vss.n2257                       0.000561508
x1.vss.n2256                       0.000562327
x1.vss.n2255                       0.000559875
x1.vss.n2254                       0.000563253
x1.vss.n2253                        0.00056642
x1.vss.n2336                       0.000579914
x1.vss.n2252                       0.000567067
x1.vss.n2251                       0.000580497
x1.vss.n166                        0.000593608
x1.vss.n2250                       0.000567125
x1.vss.n162                        0.000586671
x1.vss.n2342                       0.000607253
x1.vss.n2249                       0.000566329
x1.vss.n161                        0.000592146
x1.vss.n2343                       0.000618451
x1.vss.n2248                       0.000564402
x1.vss.n160                        0.000597292
x1.vss.n2344                       0.000631617
x1.vss.n2247                       0.000561036
x1.vss.n2246                       0.000601471
x1.vss.n159                        0.000647404
x1.vss.n2245                       0.000555901
x1.vss.n155                        0.000601947
x1.vss.n2350                       0.000655006
x1.vss.n2244                       0.000548751
x1.vss.n154                        0.000597701
x1.vss.n2351                       0.000648877
x1.vss.n2243                       0.000539458
x1.vss.n153                        0.000591955
x1.vss.n2352                       0.000646648
x1.vss.n2242                       0.000527869
x1.vss.n2241                       0.000584729
x1.vss.n152                        0.000648536
x1.vss.n2240                       0.000513791
x1.vss.n148                        0.000572824
x1.vss.n2358                       0.000637367
x1.vss.n2239                       0.000497129
x1.vss.n147                        0.000557209
x1.vss.n2359                       0.000619186
x1.vss.n2238                       0.000477839
x1.vss.n146                        0.000540316
x1.vss.n2360                       0.000605392
x1.vss.n2237                       0.000455814
x1.vss.n2236                       0.000521674
x1.vss.n145                        0.000596094
x1.vss.n2235                       0.000430907
x1.vss.n141                        0.000497266
x1.vss.n2366                       0.000567956
x1.vss.n2234                       0.000403096
x1.vss.n140                        0.000469942
x1.vss.n2367                       0.000538732
x1.vss.n2233                        0.00037236
x1.vss.n139                        0.000441307
x1.vss.n2368                       0.000513662
x1.vss.n2232                       0.000338607
x1.vss.n2231                       0.000410378
x1.vss.n135                        0.000492329
x1.vss.n2230                       0.000301713
x1.vss.n134                        0.000372592
x1.vss.n2374                       0.000446496
x1.vss.n2229                       0.000261717
x1.vss.n133                        0.000332769
x1.vss.n2375                       0.000404237
x1.vss.n2228                       0.000218611
x1.vss.n132                        0.000292667
x1.vss.n2376                       0.000364895
x1.vss.n124                        0.000253796
x1.vss.n122                        0.000172265
x1.vss.n126                        0.000326974
x1.vss.n2384                       0.000122351
x1.vss.n2382                       0.000287355
x1.vss.n121                        0.000126044
x1.vss.n1715                       0.000174574
x1.vss.n1714                       0.000137028
x1.vss.n1713                       0.000146368
x1.vss.n1638                       0.000177289
x1.vss.n1712                       0.000154355
x1.vss.n1711                        0.00018068
x1.vss.n1710                       0.000183934
x1.vss.n1709                       0.000161191
x1.vss.n1708                       0.000167031
x1.vss.n1705                       0.000176978
x1.vss.n1704                       0.000181301
x1.vss.n1703                       0.000194046
x1.vss.n1702                       0.000195957
x1.vss.n1701                       0.000185065
x1.vss.n1700                       0.000188353
x1.vss.n1699                       0.000197627
x1.vss.n1698                       0.000199092
x1.vss.n1697                       0.000191236
x1.vss.n1696                       0.000193774
x1.vss.n1695                       0.000200381
x1.vss.n1694                       0.000201524
x1.vss.n1693                       0.000196024
x1.vss.n1692                       0.000198033
x1.vss.n1691                       0.000202545
x1.vss.n1690                       0.000203465
x1.vss.n1689                       0.000199844
x1.vss.n1688                       0.000201497
x1.vss.n1687                       0.000204305
x1.vss.n1686                       0.000205083
x1.vss.n1685                       0.000203026
x1.vss.n1684                       0.000204466
x1.vss.n1683                       0.000205814
x1.vss.n1682                       0.000206516
x1.vss.n1681                       0.000205847
x1.vss.n1680                       0.000207199
x1.vss.n1679                       0.000207203
x1.vss.n1678                       0.000207889
x1.vss.n1677                        0.00020855
x1.vss.n1676                        0.00020993
x1.vss.n1675                       0.000208591
x1.vss.n1674                       0.000209322
x1.vss.n1673                       0.000211369
x1.vss.n1672                       0.000212898
x1.vss.n1671                       0.000210099
x1.vss.n1670                       0.000210937
x1.vss.n1669                       0.000214549
x1.vss.n1668                       0.000216358
x1.vss.n1667                       0.000211857
x1.vss.n1666                       0.000212876
x1.vss.n1665                       0.000218364
x1.vss.n1664                       0.000220611
x1.vss.n1661                        0.00022568
x1.vss.n1660                       0.000228613
x1.vss.n1659                       0.000218084
x1.vss.n1658                       0.000219808
x1.vss.n1657                       0.000232006
x1.vss.n1656                       0.000235933
x1.vss.n1655                       0.000221804
x1.vss.n1654                       0.000224114
x1.vss.n1653                       0.000240478
x1.vss.n1652                        0.00024574
x1.vss.n1651                       0.000226791
x1.vss.n1650                       0.000229896
x1.vss.n1649                        0.00025183
x1.vss.n1648                       0.000258881
x1.vss.n1647                       0.000233509
x1.vss.n1646                       0.000237748
x1.vss.n1645                       0.000267042
x1.vss.n1644                       0.000276485
x1.vss.n1643                       0.000242828
x1.vss.n1642                       0.000249231
x1.vss.n1641                       0.000287401
x1.vss.n1640                       0.000299987
x1.vss.n129                        0.000341743
x1.vss.n1718                       0.000251481
x1.vss.n2381                       0.000325396
x1.vss.n2380                       0.000357878
x1.vss.n2379                       0.000375436
x1.vss.n128                        0.000352153
x1.vss.n2378                       0.000394012
x1.vss.n2377                       0.000380187
x1.vss.n131                         0.00040921
x1.vss.n130                        0.000413193
x1.vss.n2373                       0.000438899
x1.vss.n2372                       0.000432549
x1.vss.n2371                       0.000451626
x1.vss.n136                        0.000467748
x1.vss.n2370                       0.000469999
x1.vss.n2369                       0.000490901
x1.vss.n138                          0.0005128
x1.vss.n137                        0.000487456
x1.vss.n2365                       0.000534305
x1.vss.n2364                       0.000503804
x1.vss.n2363                       0.000518818
x1.vss.n142                        0.000553687
x1.vss.n2362                       0.000532305
x1.vss.n2361                       0.000567992
x1.vss.n144                        0.000581143
x1.vss.n143                        0.000544231
x1.vss.n2357                       0.000593531
x1.vss.n2356                       0.000554542
x1.vss.n2355                       0.000563147
x1.vss.n149                        0.000602654
x1.vss.n2354                       0.000570022
x1.vss.n2353                       0.000607485
x1.vss.n151                         0.00061117
x1.vss.n150                        0.000575258
x1.vss.n2349                       0.000613645
x1.vss.n2348                       0.000578923
x1.vss.n2347                       0.000581068
x1.vss.n156                         0.00061165
x1.vss.n2346                       0.000581875
x1.vss.n2345                       0.000606171
x1.vss.n158                        0.000599917
x1.vss.n157                        0.000581618
x1.vss.n2341                       0.000593504
x1.vss.n2340                       0.000580561
x1.vss.n2339                       0.000578938
x1.vss.n163                        0.000586549
x1.vss.n2338                       0.000576981
x1.vss.n1785                       8.35868e-05
x1.vss.n1617                       0.000130232
x1.vss.n1616                       0.000169474
x1.vss.n1784                       8.31503e-05
x1.vss.n1783                       0.000131819
x1.vss.n1782                        0.00017526
x1.vss.n1779                       0.000135969
x1.vss.n1778                       8.36541e-05
x1.vss.n1780                       0.000200675
x1.vss.n1777                       8.43374e-05
x1.vss.n1720                       0.000140165
x1.vss.n1719                       0.000232359
x1.vss.n1776                       8.48136e-05
x1.vss.n1775                       0.000142285
x1.vss.n125                        0.000266484
x1.vss.n1536                       9.39904e-05
x1.vss.n1531                       9.38894e-05
x1.vss.n1877                       9.39658e-05
x1.vss.n1538                       9.40006e-05
x1.vss.n1876                       9.39315e-05
x1.vss.n1721                       9.40123e-05
x1.vss.n1537                       9.39873e-05
x1.vss.n1539                       9.39646e-05
x1.vss.n1722                        9.4025e-05
x1.vss.n1543                       9.40074e-05
x1.vss.n1870                       9.39919e-05
x1.vss.n1723                       9.40386e-05
x1.vss.n1544                       9.40261e-05
x1.vss.n1869                       9.40153e-05
x1.vss.n1724                       9.40527e-05
x1.vss.n1545                       9.40438e-05
x1.vss.n1868                        9.4036e-05
x1.vss.n1726                       9.40672e-05
x1.vss.n1725                       9.40606e-05
x1.vss.n1546                       9.40549e-05
x1.vss.n1727                       9.40819e-05
x1.vss.n1550                       9.40769e-05
x1.vss.n1862                       9.40725e-05
x1.vss.n1728                       9.40969e-05
x1.vss.n1551                       9.40929e-05
x1.vss.n1861                       9.40893e-05
x1.vss.n1729                       9.41121e-05
x1.vss.n1552                       9.41087e-05
x1.vss.n1860                       9.41055e-05
x1.vss.n1731                       9.41274e-05
x1.vss.n1730                       9.41243e-05
x1.vss.n1553                       9.41213e-05
x1.vss.n1732                       9.41428e-05
x1.vss.n1557                       9.41398e-05
x1.vss.n1854                       9.41369e-05
x1.vss.n1733                       9.41584e-05
x1.vss.n1558                       9.41553e-05
x1.vss.n1853                       9.41523e-05
x1.vss.n1734                       9.41741e-05
x1.vss.n1559                       9.41709e-05
x1.vss.n1852                       9.41676e-05
x1.vss.n1736                       9.41899e-05
x1.vss.n1735                       9.41864e-05
x1.vss.n1560                       9.41828e-05
x1.vss.n1737                       9.42059e-05
x1.vss.n1564                        9.4202e-05
x1.vss.n1846                        9.4198e-05
x1.vss.n1738                       9.42221e-05
x1.vss.n1565                       9.42177e-05
x1.vss.n1845                       9.42132e-05
x1.vss.n1739                       9.42385e-05
x1.vss.n1566                       9.42336e-05
x1.vss.n1844                       9.42284e-05
x1.vss.n1741                       9.42551e-05
x1.vss.n1740                       9.42496e-05
x1.vss.n1567                       9.42438e-05
x1.vss.n1742                       9.42719e-05
x1.vss.n1571                       9.42658e-05
x1.vss.n1838                       9.42592e-05
x1.vss.n1743                        9.4289e-05
x1.vss.n1572                       9.42822e-05
x1.vss.n1837                        9.4275e-05
x1.vss.n1744                       9.43064e-05
x1.vss.n1573                        9.4299e-05
x1.vss.n1836                       9.42911e-05
[...]
x1.a_3868_4185.n18                    0.601177
x1.a_3868_4185.n21                    0.601177
x1.a_3868_4185.n20                    0.601177
x1.a_3868_4185.n23                    0.601177
x1.a_3868_4185.n22                    0.601177
x1.a_3868_4185.n25                    0.601177
x1.a_3868_4185.n24                    0.601177
x1.a_3868_4185.n27                    0.601177
x1.a_3868_4185.n26                    0.601177
x1.a_3868_4185.n45                    0.601177
x1.a_3868_4185.n48                    0.601177
x1.a_3868_4185.n47                    0.601177
x1.a_3868_4185.n50                    0.601177
x1.a_3868_4185.n49                    0.601177
x1.a_3868_4185.n52                    0.601177
x1.a_3868_4185.n51                    0.601177
x1.a_3868_4185.n54                    0.601177
x1.a_3868_4185.n53                    0.601177
x1.a_3868_4185.n56                    0.601177
x1.a_3868_4185.n55                    0.601177
x1.a_3868_4185.n58                    0.601177
x1.a_3868_4185.n57                    0.601177
x1.a_3868_4185.n60                    0.601177
x1.a_3868_4185.n63                    0.601177
x1.a_3868_4185.n62                    0.601177
x1.a_3868_4185.n65                    0.601177
x1.a_3868_4185.n64                    0.601177
x1.a_3868_4185.n67                    0.601177
x1.a_3868_4185.n66                    0.601177
x1.a_3868_4185.n69                    0.601177
x1.a_3868_4185.n68                    0.601177
x1.a_3868_4185.n71                    0.601177
x1.a_3868_4185.n70                    0.601177
x1.a_3868_4185.n73                    0.601177
x1.a_3868_4185.n72                    0.601177
x1.a_3868_4185.n77                    0.601177
x1.a_3868_4185.n76                    0.601177
x1.a_3868_4185.n43                    0.601177
x1.a_3868_4185.n74                    0.601177
x1.a_3868_4185.n75                    0.601177
x1.vout.n15                            1.34372
x1.vout.n13                            1.34372
x1.vout.n2                             1.34372
x1.vout.n0                             1.34372
x1.vout.n1                             1.34372
x1.vout.n4                             1.34372
x1.vout.n3                             1.34372
x1.vout.n6                             1.34372
x1.vout.n5                             1.34372
x1.vout.n8                             1.34372
x1.vout.n7                             1.34372
x1.vout.n10                            1.34372
x1.vout.n9                             1.34372
x1.vout.n12                            1.34372
x1.vout.n11                            1.34372
x1.vout.n14                            1.34372
x1.vout.n17                            1.34372
x1.vout.n16                            1.34372
x1.vout.n19                            1.34372
x1.vout.n18                            1.34372
x1.vout.n21                            1.34372
x1.vout.n20                            1.34372
x1.vout.n23                            1.34372
x1.vout.n22                            1.34372
x1.vout.n25                            1.34372
x1.vout.n24                            1.34372
x1.vout.n68                            1.34372
x1.vout.n66                            1.34372
x1.vout.n63                            1.34372
x1.vout.n61                            1.34372
x1.vout.n58                            1.34372
x1.vout.n56                            1.34372
x1.vout.n53                            1.34372
x1.vout.n51                            1.34372
x1.vout.n48                            1.34372
x1.vout.n46                            1.34372
x1.vout.n43                            1.34372
x1.vout.n41                            1.34372
x1.vout.n38                            1.34372
x1.vout.n36                            1.34372
x1.vout.n33                            1.34372
x1.vout.n31                            1.34372
x1.vout.n73                            1.34372
x1.vout.n71                            1.34372
x1.vout.n28                            1.34372
x1.vout.n26                            1.34372
x1.vout.n75                            1.34372
x1.vout.n74                            1.34372
x1.vout.n72                            1.34372
x1.vout.n70                            1.34372
x1.vout.n69                            1.34372
x1.vout.n67                            1.34372
x1.vout.n65                            1.34372
x1.vout.n64                            1.34372
x1.vout.n62                            1.34372
x1.vout.n60                            1.34372
x1.vout.n59                            1.34372
x1.vout.n57                            1.34372
x1.vout.n55                            1.34372
x1.vout.n54                            1.34372
x1.vout.n52                            1.34372
x1.vout.n50                            1.34372
x1.vout.n49                            1.34372
x1.vout.n47                            1.34372
x1.vout.n45                            1.34372
x1.vout.n44                            1.34372
x1.vout.n42                            1.34372
x1.vout.n40                            1.34372
x1.vout.n39                            1.34372
x1.vout.n37                            1.34372
x1.vout.n35                            1.34372
x1.vout.n34                            1.34372
x1.vout.n32                            1.34372
x1.vout.n30                            1.34372
x1.vout.n29                            1.34372
x1.vout.n27                            1.34372
x1.vout.n86                            1.34372
x1.vout.n85                            1.34372
x1.vout.n84                            1.34372
x1.vout.n87                            1.34372
x1.vout.n76                            1.34372
x1.vout.n78                            1.34372
x1.vout.n80                            1.34372
x1.vout.n82                            1.34372
x1.vout.n77                            1.34372
x1.vout.n79                            1.34372
x1.vout.n81                            1.34372
x1.vout.n83                            1.34372
x1.a_n1962_4406.n21                    1.34371
x1.a_n1962_4406.n19                    1.34371
x1.a_n1962_4406.n115                   1.34371
x1.a_n1962_4406.n113                   1.34371
x1.a_n1962_4406.n2                     1.34371
x1.a_n1962_4406.n0                     1.34371
x1.a_n1962_4406.n8                     1.34371
x1.a_n1962_4406.n6                     1.34371
x1.a_n1962_4406.n58                    1.34371
x1.a_n1962_4406.n56                    1.34371
x1.a_n1962_4406.n25                    1.34371
x1.a_n1962_4406.n23                    1.34371
x1.a_n1962_4406.n39                    1.34371
x1.a_n1962_4406.n37                    1.34371
x1.a_n1962_4406.n5                     1.34371
x1.a_n1962_4406.n3                     1.34371
x1.a_n1962_4406.n98                    1.34371
x1.a_n1962_4406.n96                    1.34371
x1.a_n1962_4406.n79                    1.34371
x1.a_n1962_4406.n77                    1.34371
x1.a_n1962_4406.n83                    1.34371
x1.a_n1962_4406.n81                    1.34371
x1.a_n1962_4406.n48                    1.34371
x1.a_n1962_4406.n36                    1.34371
x1.a_n1962_4406.n52                    1.34371
x1.a_n1962_4406.n22                    1.34371
x1.a_n1962_4406.n92                    1.34371
x1.a_n1962_4406.n80                    1.34371
x1.a_n1962_4406.n110                   1.34371
x1.a_n1962_4406.n109                   1.34371
x1.a_n1962_4406.n112                   1.34371
x1.a_n1962_4406.n111                   1.34371
x1.a_n1962_4406.n119                   1.34371
x1.a_n1962_4406.n118                   1.34371
x1.a_n1962_4406.n117                   1.34371
x1.a_n1962_4406.n116                   1.34371
x1.a_n1962_4406.n114                   1.34371
x1.a_n1962_4406.n76                    1.34371
x1.a_n1962_4406.n75                    1.34371
x1.a_n1962_4406.n1                     1.34371
x1.a_n1962_4406.n72                    1.34371
x1.a_n1962_4406.n71                    1.34371
x1.a_n1962_4406.n18                    1.34371
x1.a_n1962_4406.n17                    1.34371
x1.a_n1962_4406.n16                    1.34371
x1.a_n1962_4406.n15                    1.34371
x1.a_n1962_4406.n14                    1.34371
x1.a_n1962_4406.n13                    1.34371
x1.a_n1962_4406.n12                    1.34371
x1.a_n1962_4406.n11                    1.34371
x1.a_n1962_4406.n10                    1.34371
x1.a_n1962_4406.n9                     1.34371
x1.a_n1962_4406.n7                     1.34371
x1.a_n1962_4406.n68                    1.34371
x1.a_n1962_4406.n67                    1.34371
x1.a_n1962_4406.n66                    1.34371
x1.a_n1962_4406.n65                    1.34371
x1.a_n1962_4406.n64                    1.34371
x1.a_n1962_4406.n63                    1.34371
x1.a_n1962_4406.n62                    1.34371
x1.a_n1962_4406.n61                    1.34371
x1.a_n1962_4406.n60                    1.34371
x1.a_n1962_4406.n59                    1.34371
x1.a_n1962_4406.n57                    1.34371
x1.a_n1962_4406.n55                    1.34371
x1.a_n1962_4406.n54                    1.34371
x1.a_n1962_4406.n20                    1.34371
x1.a_n1962_4406.n51                    1.34371
x1.a_n1962_4406.n50                    1.34371
x1.a_n1962_4406.n35                    1.34371
x1.a_n1962_4406.n34                    1.34371
x1.a_n1962_4406.n33                    1.34371
x1.a_n1962_4406.n32                    1.34371
x1.a_n1962_4406.n31                    1.34371
x1.a_n1962_4406.n30                    1.34371
x1.a_n1962_4406.n29                    1.34371
x1.a_n1962_4406.n28                    1.34371
x1.a_n1962_4406.n27                    1.34371
x1.a_n1962_4406.n26                    1.34371
x1.a_n1962_4406.n24                    1.34371
x1.a_n1962_4406.n47                    1.34371
x1.a_n1962_4406.n46                    1.34371
x1.a_n1962_4406.n45                    1.34371
x1.a_n1962_4406.n44                    1.34371
x1.a_n1962_4406.n43                    1.34371
x1.a_n1962_4406.n42                    1.34371
x1.a_n1962_4406.n41                    1.34371
x1.a_n1962_4406.n40                    1.34371
x1.a_n1962_4406.n38                    1.34371
x1.a_n1962_4406.n4                     1.34371
x1.a_n1962_4406.n106                   1.34371
x1.a_n1962_4406.n105                   1.34371
x1.a_n1962_4406.n104                   1.34371
x1.a_n1962_4406.n103                   1.34371
x1.a_n1962_4406.n102                   1.34371
x1.a_n1962_4406.n101                   1.34371
x1.a_n1962_4406.n100                   1.34371
x1.a_n1962_4406.n99                    1.34371
x1.a_n1962_4406.n97                    1.34371
x1.a_n1962_4406.n95                    1.34371
x1.a_n1962_4406.n94                    1.34371
x1.a_n1962_4406.n78                    1.34371
x1.a_n1962_4406.n91                    1.34371
x1.a_n1962_4406.n90                    1.34371
x1.a_n1962_4406.n89                    1.34371
x1.a_n1962_4406.n88                    1.34371
x1.a_n1962_4406.n87                    1.34371
x1.a_n1962_4406.n86                    1.34371
x1.a_n1962_4406.n85                    1.34371
x1.a_n1962_4406.n84                    1.34371
x1.a_n1962_4406.n82                    1.34371
x1.a_n1962_4406.n121                   1.34371
x1.a_n1962_4406.n120                   1.34371
x1.a_n1962_4406.n49                    1.34371
x1.a_n1962_4406.n53                    1.34371
x1.a_n1962_4406.n70                    1.34371
x1.a_n1962_4406.n69                    1.34371
x1.a_n1962_4406.n74                    1.34371
x1.a_n1962_4406.n73                    1.34371
x1.a_n1962_4406.n93                    1.34371
x1.a_n1962_4406.n108                   1.34371
x1.a_n1962_4406.n107                   1.34371
x1.vp.n0                                   0.9
x1.vp.n1                                   0.9
x1.vp.n3                                   0.9
x1.vp.n7                                   0.9
x1.vp.n9                                   0.9
x1.vp.n13                                  0.9
x1.vp.n4                                   0.9
x1.vp.n5                                   0.9
x1.vp.n10                                  0.9
x1.vp.n11                                  0.9
x1.vp.n14                                  0.9
x1.vp.n2                                   0.9
x1.vp.n8                                   0.9
x1.vp.n6                                   0.9
x1.vp.n12                                  0.9
x1.a_n735_8972.n50                     1.30699
x1.a_n735_8972.n49                     1.30699
x1.a_n735_8972.n52                     1.30699
x1.a_n735_8972.n51                     1.30699
x1.a_n735_8972.n47                     1.30699
x1.a_n735_8972.n0                      1.30699
x1.a_n735_8972.n48                     1.30699
x1.a_n735_8972.n36                     1.30699
x1.a_n735_8972.n33                     1.30699
x1.a_n735_8972.n30                     1.30699
x1.a_n735_8972.n27                     1.30699
x1.a_n735_8972.n24                     1.30699
x1.a_n735_8972.n21                     1.30699
x1.a_n735_8972.n18                     1.30699
x1.a_n735_8972.n37                     1.30699
x1.a_n735_8972.n38                     1.30699
x1.a_n735_8972.n34                     1.30699
x1.a_n735_8972.n35                     1.30699
x1.a_n735_8972.n31                     1.30699
x1.a_n735_8972.n32                     1.30699
x1.a_n735_8972.n28                     1.30699
x1.a_n735_8972.n29                     1.30699
x1.a_n735_8972.n25                     1.30699
x1.a_n735_8972.n26                     1.30699
x1.a_n735_8972.n22                     1.30699
x1.a_n735_8972.n23                     1.30699
x1.a_n735_8972.n19                     1.30699
x1.a_n735_8972.n20                     1.30699
x1.a_n735_8972.n5                      1.30699
x1.a_n735_8972.n4                      1.30699
x1.a_n735_8972.n11                     1.30699
x1.a_n735_8972.n10                     1.30699
x1.a_n735_8972.n17                     1.30699
x1.a_n735_8972.n16                     1.30699
x1.a_n735_8972.n3                      1.30699
x1.a_n735_8972.n1                      1.30699
x1.a_n735_8972.n8                      1.30699
x1.a_n735_8972.n6                      1.30699
x1.a_n735_8972.n14                     1.30699
x1.a_n735_8972.n12                     1.30699
x1.a_n735_8972.n13                     1.30699
x1.a_n735_8972.n2                      1.30699
x1.a_n735_8972.n7                      1.30699
x1.a_n735_8972.n45                     1.30699
x1.a_n735_8972.n46                     1.30699
x1.a_n735_8972.n44                     1.30699
x1.a_n735_8972.n39                     1.30699
x1.a_n735_8972.n40                     1.30699
x1.a_n735_8972.n41                     1.30699
x1.a_n735_8972.n42                     1.30699
x1.a_n735_8972.n43                     1.30699
x1.a_n735_8972.n9                      1.30699
x1.a_n735_8972.n15                     1.30699
x1.vn.n0                                   0.9
x1.vn.n1                                   0.9
x1.vn.n3                                   0.9
x1.vn.n7                                   0.9
x1.vn.n9                                   0.9
x1.vn.n13                                  0.9
x1.vn.n5                                   0.9
x1.vn.n4                                   0.9
x1.vn.n11                                  0.9
x1.vn.n10                                  0.9
x1.vn.n14                                  0.9
x1.vn.n2                                   0.9
x1.vn.n8                                   0.9
x1.vn.n6                                   0.9
x1.vn.n12                                  0.9
x1.a_n935_8875.n41                     1.30662
x1.a_n935_8875.n35                     1.30662
x1.a_n935_8875.n6                      1.30662
x1.a_n935_8875.n4                      1.30662
x1.a_n935_8875.n19                     1.30662
x1.a_n935_8875.n13                     1.30662
x1.a_n935_8875.n27                     1.30662
x1.a_n935_8875.n25                     1.30662
x1.a_n935_8875.n15                     1.30662
x1.a_n935_8875.n37                     1.30662
x1.a_n935_8875.n11                     1.30662
x1.a_n935_8875.n10                     1.30662
x1.a_n935_8875.n32                     1.30662
x1.a_n935_8875.n31                     1.30662
x1.a_n935_8875.n5                      1.30662
x1.a_n935_8875.n26                     1.30662
x1.a_n935_8875.n8                      1.30662
x1.a_n935_8875.n21                     1.30662
x1.a_n935_8875.n14                     1.30662
x1.a_n935_8875.n29                     1.30662
x1.a_n935_8875.n43                     1.30662
x1.a_n935_8875.n36                     1.30662
x1.a_n935_8875.n55                     1.30662
x1.a_n935_8875.n54                     1.30662
x1.a_n935_8875.n59                     1.30662
x1.a_n935_8875.n58                     1.30662
x1.a_n935_8875.n56                     1.30662
x1.a_n935_8875.n50                     1.30662
x1.a_n935_8875.n53                     1.30662
x1.a_n935_8875.n51                     1.30662
x1.a_n935_8875.n49                     1.30662
x1.a_n935_8875.n47                     1.30662
x1.a_n935_8875.n2                      1.30662
x1.a_n935_8875.n0                      1.30662
x1.a_n935_8875.n52                     1.30662
x1.a_n935_8875.n48                     1.30662
x1.a_n935_8875.n1                      1.30662
x1.a_n935_8875.n46                     1.30662
x1.a_n935_8875.n45                     1.30662
x1.a_n935_8875.n9                      1.30662
x1.a_n935_8875.n22                     1.30662
x1.a_n935_8875.n16                     1.30662
x1.a_n935_8875.n30                     1.30662
x1.a_n935_8875.n44                     1.30662
x1.a_n935_8875.n38                     1.30662
x1.a_n935_8875.n7                      1.30662
x1.a_n935_8875.n3                      1.30662
x1.a_n935_8875.n18                     1.30662
x1.a_n935_8875.n17                     1.30662
x1.a_n935_8875.n20                     1.30662
x1.a_n935_8875.n12                     1.30662
x1.a_n935_8875.n28                     1.30662
x1.a_n935_8875.n24                     1.30662
x1.a_n935_8875.n42                     1.30662
x1.a_n935_8875.n34                     1.30662
x1.a_n935_8875.n40                     1.30662
x1.a_n935_8875.n39                     1.30662
x1.a_n935_8875.n23                     1.30662
x1.a_n935_8875.n33                     1.30662
x1.a_n935_8875.n57                     1.30662
v.x1.x62.x0.vrbody_3#branch                  0
e1#branch                          -5.6552e-16
e2#branch                         -9.78384e-16
v4#branch                         -5.00039e-06
v0#branch                          5.00031e-06
vcm#branch                         -1.5439e-15
vdm#branch                                   0

 Reference value :  0.00000e+00
 Reference value :  1.60000e-08
 Reference value :  3.14000e-07
 Reference value :  5.64000e-07
 Reference value :  8.64000e-07
 Reference value :  1.21400e-06
 Reference value :  1.56400e-06
 Reference value :  1.86400e-06
 Reference value :  2.21400e-06
 Reference value :  2.51400e-06
 Reference value :  2.76400e-06
 Reference value :  3.01400e-06
 Reference value :  3.26400e-06
 Reference value :  3.51400e-06
 Reference value :  3.76400e-06
 Reference value :  4.01400e-06
 Reference value :  4.31400e-06
 Reference value :  4.56400e-06
 Reference value :  4.81400e-06
 Reference value :  5.06400e-06
 Reference value :  5.31400e-06
 Reference value :  5.61400e-06
 Reference value :  5.86400e-06
 Reference value :  6.11400e-06
 Reference value :  6.36400e-06
 Reference value :  6.66400e-06
 Reference value :  7.01400e-06
 Reference value :  7.31400e-06
 Reference value :  7.56400e-06
 Reference value :  7.81400e-06
 Reference value :  8.11400e-06
 Reference value :  8.41400e-06
 Reference value :  8.66400e-06
 Reference value :  8.91400e-06
 Reference value :  9.21400e-06
 Reference value :  9.56400e-06
 Reference value :  9.91400e-06
