
Note: Compatibility modes selected: hs a


Circuit: ** sch_path: /foss/designs/sky130_op_amp/runs/run_2025-10-21_19-47-49/parameters/dc_params/run_22/sky130_op_amp_tb.sch

option SCALE: Scale is set to 1e-06 for instance and model parameters
option SCALE: Scale is set to 1e-06 for instance and model parameters
option SCALE: Scale is set to 1e-06 for instance and model parameters
option SCALE: Scale is set to 1e-06 for instance and model parameters
Doing analysis at TEMP = 27.000000 and TNOM = 27.000000

Using SPARSE 1.3 as Direct Linear Solver
 Reference value :  1.00000e+03
 Reference value :  1.99526e+03
 Reference value :  3.98107e+03
 Reference value :  8.91251e+03
 Reference value :  2.81838e+04
 Reference value :  7.94328e+04
 Reference value :  2.23872e+05
 Reference value :  7.94328e+05
 Reference value :  1.99526e+06
 Reference value :  5.62341e+06
 Reference value :  1.25893e+07
 Reference value :  3.54813e+07
 Reference value :  1.00000e+08
No. of Data Rows : 101
a0                  =  3.703751e+03
ugf                 =  1.073421e+07
pm                  =  8.057028e+01
Note: Simulation executed from .control section 
