
Note: Compatibility modes selected: hs a


Circuit: ** sch_path: /foss/designs/sky130_op_amp/runs/run_2025-10-22_16-52-56/parameters/dc_params/run_18/sky130_op_amp_tb.sch

option SCALE: Scale is set to 1e-06 for instance and model parameters
option SCALE: Scale is set to 1e-06 for instance and model parameters
option SCALE: Scale is set to 1e-06 for instance and model parameters
option SCALE: Scale is set to 1e-06 for instance and model parameters
Doing analysis at TEMP = 27.000000 and TNOM = 27.000000

Using SPARSE 1.3 as Direct Linear Solver
 Reference value :  1.00000e+03
 Reference value :  1.77828e+03
 Reference value :  3.16228e+03
 Reference value :  5.01187e+03
 Reference value :  8.91251e+03
 Reference value :  1.41254e+04
 Reference value :  1.99526e+04
 Reference value :  3.16228e+04
 Reference value :  5.01187e+04
 Reference value :  7.94328e+04
 Reference value :  1.12202e+05
 Reference value :  1.77828e+05
 Reference value :  2.81838e+05
 Reference value :  4.46684e+05
 Reference value :  7.07946e+05
 Reference value :  1.00000e+06
 Reference value :  1.41254e+06
 Reference value :  1.99526e+06
 Reference value :  3.16228e+06
 Reference value :  5.01187e+06
 Reference value :  7.94328e+06
 Reference value :  1.25893e+07
 Reference value :  1.99526e+07
 Reference value :  3.54813e+07
 Reference value :  6.30957e+07
No. of Data Rows : 101
a0                  =  6.934362e+01
ugf                 =  1.066381e+07
pm                  =  8.212031e+01
Note: Simulation executed from .control section 
