
Note: Compatibility modes selected: hs a


Circuit: ** sch_path: /foss/designs/sky130_op_amp/runs/run_2025-10-21_19-12-46/parameters/slew_rate/run_67/transient.sch

option SCALE: Scale is set to 1e-06 for instance and model parameters
option SCALE: Scale is set to 1e-06 for instance and model parameters
option SCALE: Scale is set to 1e-06 for instance and model parameters
option SCALE: Scale is set to 1e-06 for instance and model parameters
Doing analysis at TEMP = 130.000000 and TNOM = 27.000000

Using SPARSE 1.3 as Direct Linear Solver

Initial Transient Solution
--------------------------

Node                                   Voltage
----                                   -------
vdd                                        1.8
ibias                                 0.599226
vout                               1.38852e-05
vss                                          0
vn                                 1.38852e-05
vp                                           0
x1.a_8862_4192.t27                  0.00124273
x1.en.t0                                   1.8
x1.vss.t311                        9.29888e-05
x1.vss.t215                        5.47391e-05
x1.vdd.t97                                 1.8
x1.vdd.t96                                 1.8
x1.vdd.t44                                 1.8
x1.vdd.t95                                 1.8
x1.vdd.t93                                 1.8
x1.vdd.t94                                 1.8
x1.vdd.t47                                 1.8
x1.a_3868_4185.t39                 1.21987e-05
x1.ibias.t10                          0.599205
x1.a_3329_8823.t39                 1.28952e-05
x1.vss.t0                          1.41704e-05
x1.a_n1962_4406.t59                1.23045e-05
x1.ibias.t11                          0.599205
x1.vout.t21                        1.38314e-05
x1.vss.t6                          1.22189e-05
x1.a_n1962_4406.t58                1.23044e-05
x1.ibias.t12                          0.599205
x1.vout.t53                        1.38318e-05
x1.vss.t211                        5.35394e-05
x1.vss.t209                        5.36989e-05
x1.vss.t210                         6.8583e-05
x1.vss.t30                         5.01484e-05
x1.a_3329_8823.t38                 1.28952e-05
x1.ibias.t13                          0.599205
x1.a_3868_4185.t38                 1.21987e-05
x1.vss.t1                          1.40084e-05
x1.vss.t208                        1.22099e-05
x1.vss.t207                        1.22094e-05
x1.vss.t64                         1.40976e-05
x1.vdd.t92                                 1.8
x1.vdd.t91                                 1.8
x1.vdd.t71                                 1.8
x1.a_3868_4185.t37                 1.21987e-05
x1.ibias.t14                          0.599205
x1.a_3329_8823.t8                  1.28952e-05
x1.vss.t11                         1.38485e-05
x1.a_n735_8972.t23                     1.50981
x1.vp.t0                                     0
x1.a_3329_8823.t56                 1.29043e-05
x1.vss.t2                           1.3604e-05
x1.vss.t310                        1.21317e-05
x1.en.t1                                   1.8
x1.a_n1962_4406.t123                1.2302e-05
x1.vss.t77                         1.22255e-05
x1.a_3868_4185.t36                 1.21967e-05
x1.ibias.t15                          0.599205
x1.a_3329_8823.t17                 1.28953e-05
x1.vss.t7                          1.45426e-05
x1.a_3329_8823.t66                 1.29046e-05
x1.vn.t0                           1.38852e-05
x1.a_n935_8875.t15                     1.50889
x1.vss.t4                          1.37225e-05
x1.vdd.t19                                 1.8
x1.a_n735_8972.t27                     1.50981
x1.vout.t67                        1.39084e-05
x1.vdd.t15                                 1.8
x1.a_n1962_4406.t122               1.23036e-05
x1.en.t2                                   1.8
x1.vss.t309                        1.21317e-05
x1.vss.t8                          1.22245e-05
x1.a_3329_8823.t65                 1.29043e-05
x1.vn.t1                           1.38852e-05
x1.a_n935_8875.t14                     1.50889
x1.vss.t5                           1.3486e-05
x1.vdd.t36                                 1.8
x1.a_n735_8972.t28                     1.50981
x1.vout.t77                        1.39067e-05
x1.vdd.t5                                  1.8
x1.vss.t206                        1.22095e-05
x1.vss.t205                        1.22095e-05
x1.a_3329_8823.t55                 1.29033e-05
x1.a_n1962_4406.t57                1.23085e-05
x1.ibias.t16                          0.599205
x1.vout.t45                        1.38308e-05
x1.vss.t212                        1.22207e-05
x1.a_n1962_4406.t56                1.23047e-05
x1.ibias.t17                          0.599205
x1.vout.t2                          1.3831e-05
x1.vss.t308                        1.21317e-05
x1.en.t3                                   1.8
x1.a_n1962_4406.t121               1.23037e-05
x1.vss.t19                         1.22216e-05
x1.a_3329_8823.t43                 1.29044e-05
x1.vn.t2                           1.38852e-05
x1.a_n935_8875.t13                     1.50889
x1.vdd.t90                                 1.8
x1.vdd.t89                                 1.8
x1.a_n1962_4406.t79                1.23064e-05
x1.vss.t203                         1.2115e-05
x1.vss.t204                         1.2115e-05
x1.vss.t20                         1.22225e-05
x1.a_n1962_4406.t120               1.23037e-05
x1.en.t4                                   1.8
x1.vss.t307                        1.21334e-05
x1.vout.t38                        1.38311e-05
x1.ibias.t18                          0.599205
x1.a_n1962_4406.t55                1.23045e-05
x1.vss.t12                         1.22235e-05
x1.vss.t202                         1.2115e-05
x1.vss.t201                         1.2115e-05
x1.a_n1962_4406.t78                1.23025e-05
x1.vss.t56                         1.22275e-05
x1.vdd.t88                                 1.8
x1.vdd.t87                                 1.8
x1.a_n935_8875.t12                     1.50889
x1.vn.t3                           1.38852e-05
x1.a_3329_8823.t62                 1.29033e-05
x1.vss.t84                         1.33392e-05
x1.vout.t46                        1.38308e-05
x1.ibias.t19                          0.599205
x1.a_n1962_4406.t54                1.23085e-05
x1.vss.t9                          1.22198e-05
x1.vdd.t86                                 1.8
x1.vdd.t84                                 1.8
x1.vdd.t85                                 1.8
x1.a_3329_8823.t63                 1.29035e-05
x1.vp.t1                                     0
x1.a_n735_8972.t22                     1.50981
x1.vss.t89                          1.3961e-05
x1.vss.t306                        1.21333e-05
x1.en.t5                                   1.8
x1.a_n1962_4406.t119               1.23037e-05
x1.vdd.t17                                 1.8
x1.a_n735_8972.t29                     1.50981
x1.vout.t65                        1.39101e-05
x1.vdd.t16                                 1.8
x1.a_n735_8972.t30                     1.50981
x1.vout.t64                        1.39098e-05
x1.vss.t198                         1.2115e-05
x1.vss.t197                         1.2115e-05
x1.a_n1962_4406.t53                1.23067e-05
x1.ibias.t20                          0.599205
x1.vout.t42                        1.38308e-05
x1.vss.t45                         1.22203e-05
x1.vout.t35                        1.38308e-05
x1.ibias.t21                          0.599205
x1.a_n1962_4406.t52                1.23046e-05
x1.vss.t16                          1.2218e-05
x1.vss.t200                        1.20901e-05
x1.vss.t199                        1.20901e-05
x1.a_3868_4185.t55                 1.21958e-05
x1.vss.t27                         1.57225e-05
x1.vss.t196                        1.20901e-05
x1.vss.t195                        1.20901e-05
x1.a_3868_4185.t54                 1.21958e-05
x1.a_n1962_4406.t77                1.23063e-05
x1.vss.t193                         1.2115e-05
x1.vss.t194                         1.2115e-05
x1.vss.t38                         1.22266e-05
x1.a_3329_8823.t42                 1.29045e-05
x1.vn.t4                           1.38852e-05
x1.a_n935_8875.t11                     1.50889
x1.a_n1962_4406.t118               1.23036e-05
x1.en.t6                                   1.8
x1.vss.t305                        1.21316e-05
x1.vss.t15                         1.22177e-05
x1.a_n1962_4406.t117               1.23036e-05
x1.en.t7                                   1.8
x1.vss.t304                        1.21281e-05
x1.vss.t192                        7.03722e-05
x1.vss.t191                        6.30205e-05
x1.vss.t22                         5.73687e-05
x1.a_n735_8972.t21                     1.50981
x1.vp.t2                                     0
x1.a_3329_8823.t73                 1.29042e-05
x1.vss.t313                        1.39943e-05
x1.a_n1962_4406.t51                1.23046e-05
x1.ibias.t22                          0.599205
x1.vout.t9                         1.38314e-05
x1.a_n1962_4406.t116               1.23036e-05
x1.en.t8                                   1.8
x1.vss.t303                        1.21243e-05
x1.a_3329_8823.t35                 1.28956e-05
x1.ibias.t23                          0.599205
x1.a_3868_4185.t35                  1.2198e-05
x1.vss.t14                         1.36869e-05
x1.ibias.t7                           0.598992
x1.ibias.t6                           0.599194
x1.a_8862_4192.t0                   0.00147286
x1.vss.t214                        5.33353e-05
x1.vss.t302                        0.000103786
x1.en.t9                                   1.8
x1.a_8862_4192.t26                  0.00124203
x1.a_n935_8875.t33                     1.50889
x1.a_n935_8875.t32                     1.50889
x1.vdd.t110                                1.8
x1.vdd.t8                                  1.8
x1.a_n1962_4406.t50                1.23046e-05
x1.ibias.t24                          0.599205
x1.vout.t3                         1.38319e-05
x1.vss.t190                         1.2115e-05
x1.vss.t188                         1.2115e-05
x1.vss.t189                         1.2115e-05
x1.vout.t0                         1.38314e-05
x1.ibias.t25                          0.599205
x1.a_n1962_4406.t49                1.23046e-05
x1.vout.t6                         1.38318e-05
x1.ibias.t26                          0.599205
x1.a_n1962_4406.t48                1.23046e-05
x1.a_3868_4185.t53                 1.21978e-05
x1.vss.t186                        1.20901e-05
x1.vss.t187                        1.20901e-05
x1.vss.t51                         1.35183e-05
x1.a_8862_4192.t25                  0.00124194
x1.en.t10                                  1.8
x1.vss.t301                        7.70773e-05
x1.vss.t219                        5.18451e-05
x1.vss.t185                        5.90676e-05
x1.vss.t183                         5.9154e-05
x1.vss.t184                        7.40155e-05
x1.vdd.t7                                  1.8
x1.a_n735_8972.t31                     1.50981
x1.vout.t62                        1.39084e-05
x1.a_n735_8972.t7                      1.50981
x1.x62.x0.t1                           1.50981
x1.x62.x0.t2                           1.50981
x1.a_9909_7861.t0                      1.50981
x1.vss.t218                        5.90502e-05
x1.x62.x0.rbody_3                            0
x1.a_3868_4185.t34                 1.21979e-05
x1.ibias.t27                          0.599205
x1.a_3329_8823.t4                  1.28955e-05
x1.vss.t10                         1.51813e-05
x1.a_8862_4192.t3                   0.00147286
x1.ibias.t4                           0.599193
x1.ibias.t5                           0.599081
x1.vss.t300                        1.21349e-05
x1.en.t11                                  1.8
x1.a_n1962_4406.t115               1.23038e-05
x1.vss.t17                         1.22182e-05
x1.a_n1962_4406.t114               1.23019e-05
x1.en.t12                                  1.8
x1.vss.t299                         1.2126e-05
x1.vss.t182                         1.2115e-05
x1.vss.t181                         1.2115e-05
x1.a_n735_8972.t24                     1.50981
x1.a_n935_8875.t34                     1.50889
x1.vdd.t103                                1.8
x1.vdd.t30                                 1.8
x1.vss.t180                        1.22095e-05
x1.vss.t179                        1.22095e-05
x1.a_3329_8823.t54                 1.29033e-05
x1.a_3329_8823.t2                  1.28955e-05
x1.ibias.t28                          0.599205
x1.a_3868_4185.t33                 1.21987e-05
x1.vss.t13                         1.48305e-05
x1.vss.t178                        6.89046e-05
x1.vss.t177                        6.15444e-05
x1.vss.t293                        1.20983e-05
x1.en.t13                                  1.8
x1.a_3868_4185.t79                 1.21962e-05
x1.vss.t18                         1.43407e-05
x1.a_n935_8875.t10                     1.50889
x1.vn.t5                           1.38852e-05
x1.a_3329_8823.t64                 1.29044e-05
x1.vss.t298                         1.2126e-05
x1.en.t14                                  1.8
x1.a_n1962_4406.t113               1.23035e-05
x1.vss.t176                         1.2115e-05
x1.vss.t175                         1.2115e-05
x1.a_n1962_4406.t76                1.23063e-05
x1.a_3329_8823.t71                 1.29035e-05
x1.vn.t6                           1.38852e-05
x1.a_n935_8875.t9                      1.50889
x1.vdd.t83                                 1.8
x1.vdd.t82                                 1.8
x1.a_3868_4185.t78                 1.21962e-05
x1.en.t15                                  1.8
x1.vss.t297                        1.20985e-05
x1.a_3868_4185.t77                 1.21962e-05
x1.en.t16                                  1.8
x1.vss.t296                        1.20985e-05
x1.vdd.t33                                 1.8
x1.a_n735_8972.t32                     1.50981
x1.vout.t75                          1.391e-05
x1.vss.t295                        9.15755e-05
x1.en.t17                                  1.8
x1.a_8862_4192.t24                   0.0012413
x1.a_3329_8823.t28                 1.28953e-05
x1.ibias.t29                          0.599205
x1.a_3868_4185.t32                  1.2198e-05
x1.a_3329_8823.t77                 1.29047e-05
x1.vp.t3                                     0
x1.a_n735_8972.t20                     1.50981
x1.vdd.t105                                1.8
x1.a_n735_8972.t33                     1.50981
x1.vout.t86                        1.39089e-05
x1.a_3868_4185.t31                 1.21967e-05
x1.ibias.t30                          0.599205
x1.a_3329_8823.t11                 1.28952e-05
x1.a_n1962_4406.t112               1.23036e-05
x1.en.t18                                  1.8
x1.vss.t294                        1.21298e-05
x1.a_8862_4192.t23                  0.00124124
x1.en.t19                                  1.8
x1.vss.t292                        7.22501e-05
x1.vss.t174                        5.45767e-05
x1.vss.t172                        5.45978e-05
x1.vss.t173                          6.934e-05
x1.a_3329_8823.t12                 1.28952e-05
x1.ibias.t31                          0.599205
x1.a_3868_4185.t30                 1.21967e-05
x1.a_3868_4185.t52                 1.21978e-05
x1.vss.t170                        1.20901e-05
x1.vss.t171                        1.20901e-05
x1.vout.t49                        1.38316e-05
x1.ibias.t32                          0.599205
x1.a_n1962_4406.t47                1.23045e-05
x1.vout.t28                        1.38321e-05
x1.ibias.t33                          0.599205
x1.a_n1962_4406.t46                1.23044e-05
x1.a_n1962_4406.t45                1.23067e-05
x1.ibias.t34                          0.599205
x1.vout.t57                        1.38325e-05
x1.a_3868_4185.t76                 1.21955e-05
x1.en.t20                                  1.8
x1.vss.t291                        1.20984e-05
x1.a_3329_8823.t61                 1.29044e-05
x1.vp.t4                                     0
x1.a_n735_8972.t19                     1.50981
x1.vout.t69                        1.39101e-05
x1.a_n735_8972.t34                     1.50981
x1.vdd.t23                                 1.8
x1.vdd.t13                                 1.8
x1.vss.t130                         1.2115e-05
x1.vss.t129                         1.2115e-05
x1.a_3868_4185.t75                 1.21962e-05
x1.en.t21                                  1.8
x1.vss.t290                        1.20983e-05
x1.vss.t289                        1.20984e-05
x1.en.t22                                  1.8
x1.a_3868_4185.t74                 1.21962e-05
x1.vout.t54                         1.3831e-05
x1.ibias.t35                          0.599205
x1.a_n1962_4406.t44                1.23067e-05
x1.a_3868_4185.t29                 1.21987e-05
x1.ibias.t36                          0.599205
x1.a_3329_8823.t18                 1.28952e-05
x1.vss.t169                         1.2115e-05
x1.vss.t168                         1.2115e-05
x1.a_n1962_4406.t43                1.23046e-05
x1.ibias.t37                          0.599205
x1.vout.t52                         1.3831e-05
x1.vout.t25                        1.38308e-05
x1.ibias.t38                          0.599205
x1.a_n1962_4406.t42                1.23068e-05
x1.vss.t167                         1.2115e-05
x1.vss.t166                         1.2115e-05
x1.vout.t26                         1.3831e-05
x1.ibias.t39                          0.599205
x1.a_n1962_4406.t41                1.23046e-05
x1.vss.t165                         1.2115e-05
x1.vss.t164                         1.2115e-05
x1.a_n1962_4406.t75                1.23063e-05
x1.vss.t288                        1.21334e-05
x1.en.t23                                  1.8
x1.a_n1962_4406.t111               1.23036e-05
x1.a_n935_8875.t8                      1.50889
x1.vn.t7                           1.38852e-05
x1.a_3329_8823.t46                 1.29046e-05
x1.vss.t3                          1.38405e-05
x1.vdd.t81                                 1.8
x1.vdd.t80                                 1.8
x1.vss.t287                        1.21281e-05
x1.en.t24                                  1.8
x1.a_n1962_4406.t110               1.23019e-05
x1.vss.t286                        1.21243e-05
x1.en.t25                                  1.8
x1.a_n1962_4406.t109               1.23019e-05
x1.vdd.t106                                1.8
x1.a_n935_8875.t35                     1.50889
x1.a_n735_8972.t25                     1.50981
x1.vdd.t11                                 1.8
x1.a_n1962_4406.t40                1.23067e-05
x1.ibias.t40                          0.599205
x1.vout.t58                         1.3831e-05
x1.vss.t163                        1.22099e-05
x1.vss.t161                        1.22095e-05
x1.vss.t162                        1.43248e-05
x1.vdd.t25                                 1.8
x1.a_n735_8972.t35                     1.50981
x1.vout.t71                        1.39077e-05
x1.vss.t160                         1.2115e-05
x1.vss.t158                         1.2115e-05
x1.vss.t159                         1.2115e-05
x1.a_n1962_4406.t108               1.23035e-05
x1.en.t26                                  1.8
x1.vss.t285                        1.21281e-05
x1.a_3329_8823.t27                 1.28955e-05
x1.ibias.t41                          0.599205
x1.a_3868_4185.t28                 1.21967e-05
x1.a_n935_8875.t31                     1.50889
x1.a_n935_8875.t30                     1.50889
x1.vdd.t37                                 1.8
x1.a_n1962_4406.t39                1.23068e-05
x1.ibias.t42                          0.599205
x1.vout.t13                        1.38308e-05
x1.vout.t16                         1.3831e-05
x1.ibias.t43                          0.599205
x1.a_n1962_4406.t38                1.23046e-05
x1.a_n1962_4406.t37                1.23046e-05
x1.ibias.t44                          0.599205
x1.vout.t22                        1.38312e-05
x1.a_n1962_4406.t107               1.23034e-05
x1.en.t27                                  1.8
x1.vss.t284                        1.21243e-05
x1.a_3329_8823.t0                  1.28954e-05
x1.ibias.t45                          0.599205
x1.a_3868_4185.t27                 1.21967e-05
x1.a_n735_8972.t18                     1.50981
x1.vp.t5                                     0
x1.a_3329_8823.t47                 1.29044e-05
x1.vss.t157                        1.22103e-05
x1.vss.t155                        1.22095e-05
x1.a_n735_8972.t4                      1.50981
x1.vss.t156                        1.41558e-05
x1.vout.t73                          1.391e-05
x1.a_n735_8972.t36                     1.50981
x1.vdd.t27                                 1.8
x1.a_n1962_4406.t36                1.23046e-05
x1.ibias.t46                          0.599205
x1.vout.t39                        1.38309e-05
x1.a_n1962_4406.t106               1.23036e-05
x1.en.t28                                  1.8
x1.vss.t280                        1.21299e-05
x1.vss.t281                        1.21281e-05
x1.en.t29                                  1.8
x1.a_n1962_4406.t105               1.23036e-05
x1.vss.t283                        1.21243e-05
x1.en.t30                                  1.8
x1.a_n1962_4406.t104               1.23036e-05
x1.vss.t282                        0.000102893
x1.en.t31                                  1.8
x1.a_8862_4192.t22                  0.00124156
x1.a_3329_8823.t53                 1.29031e-05
x1.vss.t153                        1.22091e-05
x1.vss.t154                        1.22091e-05
x1.vss.t61                         1.31574e-05
x1.vout.t14                        1.38314e-05
x1.ibias.t47                          0.599205
x1.a_n1962_4406.t35                1.23044e-05
x1.vss.t152                         1.2115e-05
x1.vss.t151                         1.2115e-05
x1.a_n1962_4406.t74                1.23025e-05
x1.vout.t17                        1.38319e-05
x1.ibias.t48                          0.599205
x1.a_n1962_4406.t34                1.23044e-05
x1.vss.t150                         1.2115e-05
x1.vss.t149                         1.2115e-05
x1.vss.t279                        1.21298e-05
x1.en.t32                                  1.8
x1.a_n1962_4406.t103               1.23036e-05
x1.a_n1962_4406.t33                1.23085e-05
x1.ibias.t49                          0.599205
x1.vout.t50                        1.38325e-05
x1.a_3868_4185.t73                 1.21962e-05
x1.en.t33                                  1.8
x1.vss.t278                        1.20986e-05
x1.vss.t274                        1.20985e-05
x1.en.t34                                  1.8
x1.a_3868_4185.t72                 1.21955e-05
x1.vss.t277                        1.20985e-05
x1.en.t35                                  1.8
x1.a_3868_4185.t71                 1.21955e-05
x1.a_n935_8875.t29                     1.50889
x1.a_n935_8875.t28                     1.50889
x1.vdd.t29                                 1.8
x1.vdd.t79                                 1.8
x1.vdd.t78                                 1.8
x1.a_n1962_4406.t32                1.23085e-05
x1.ibias.t50                          0.599205
x1.vout.t29                        1.38325e-05
x1.a_8862_4192.t21                  0.00124148
x1.en.t36                                  1.8
x1.vss.t276                        7.76663e-05
x1.a_3868_4185.t70                 1.21962e-05
x1.en.t37                                  1.8
x1.vss.t275                        1.20985e-05
x1.vss.t148                        1.20901e-05
x1.vss.t147                        1.20901e-05
x1.a_3868_4185.t51                 1.21977e-05
x1.vdd.t22                                 1.8
x1.a_n935_8875.t26                     1.50889
x1.a_n935_8875.t27                     1.50889
x1.vdd.t0                                  1.8
x1.vout.t23                        1.38325e-05
x1.ibias.t51                          0.599205
x1.a_n1962_4406.t31                1.23085e-05
x1.vss.t273                        1.20986e-05
x1.en.t38                                  1.8
x1.a_3868_4185.t69                 1.21962e-05
x1.a_3868_4185.t50                 1.21958e-05
x1.vss.t145                        1.20901e-05
x1.vss.t146                        1.20901e-05
x1.vss.t144                        5.79362e-05
x1.vss.t142                        5.80804e-05
x1.vss.t143                        7.29148e-05
x1.a_3868_4185.t49                 1.21958e-05
x1.vss.t140                        1.20901e-05
x1.vss.t141                        1.20901e-05
x1.vss.t272                        1.20985e-05
x1.en.t39                                  1.8
x1.a_3868_4185.t68                 1.21962e-05
x1.vss.t271                        1.21316e-05
x1.en.t40                                  1.8
x1.a_n1962_4406.t102               1.23036e-05
x1.a_3868_4185.t26                 1.21979e-05
x1.ibias.t52                          0.599205
x1.a_3329_8823.t14                 1.28953e-05
x1.a_3868_4185.t25                 1.21979e-05
x1.ibias.t53                          0.599205
x1.a_3329_8823.t24                 1.28954e-05
x1.a_3329_8823.t67                 1.29042e-05
x1.vn.t8                           1.38852e-05
x1.a_n935_8875.t7                      1.50889
x1.vss.t217                        1.38342e-05
x1.a_3868_4185.t24                 1.21967e-05
x1.ibias.t54                          0.599205
x1.a_3329_8823.t34                 1.28955e-05
x1.vdd.t77                                 1.8
x1.vdd.t76                                 1.8
x1.a_n1962_4406.t73                1.23063e-05
x1.vss.t138                         1.2115e-05
x1.vss.t139                         1.2115e-05
x1.a_n1962_4406.t72                1.23063e-05
x1.vss.t136                         1.2115e-05
x1.vss.t137                         1.2115e-05
x1.ibias.t3                           0.599086
x1.ibias.t2                           0.599197
x1.a_8862_4192.t2                   0.00147287
x1.vss.t216                          5.609e-05
x1.vss.t270                        7.57898e-05
x1.en.t41                                  1.8
x1.a_8862_4192.t20                  0.00124192
x1.a_3868_4185.t23                 1.21967e-05
x1.ibias.t55                          0.599205
x1.a_3329_8823.t5                  1.28954e-05
x1.a_3329_8823.t9                  1.28954e-05
x1.ibias.t56                          0.599205
x1.a_3868_4185.t22                 1.21967e-05
x1.a_n1962_4406.t101               1.23035e-05
x1.en.t42                                  1.8
x1.vss.t269                         1.2128e-05
x1.a_n1962_4406.t100               1.23035e-05
x1.en.t43                                  1.8
x1.vss.t268                        1.21242e-05
x1.a_3329_8823.t13                 1.28953e-05
x1.ibias.t57                          0.599205
x1.a_3868_4185.t21                 1.21967e-05
x1.vdd.t75                                 1.8
x1.vdd.t73                                 1.8
x1.vdd.t74                                 1.8
x1.vdd.t40                                 1.8
x1.vss.t267                         9.2505e-05
x1.en.t44                                  1.8
x1.a_8862_4192.t19                  0.00124179
x1.a_8862_4192.t18                  0.00124201
x1.en.t45                                  1.8
x1.vss.t266                        0.000103786
x1.vdd.t101                                1.8
x1.a_n735_8972.t37                     1.50981
x1.vout.t83                        1.39094e-05
x1.a_n1962_4406.t30                1.23047e-05
x1.ibias.t58                          0.599205
x1.vout.t55                        1.38308e-05
x1.a_8862_4192.t1                   0.00147287
x1.ibias.t0                           0.599195
x1.ibias.t1                           0.598992
x1.a_3329_8823.t1                  1.28952e-05
x1.ibias.t59                          0.599205
x1.a_3868_4185.t20                  1.2198e-05
x1.vdd.t109                                1.8
x1.a_n935_8875.t36                     1.50889
x1.a_n735_8972.t26                     1.50981
x1.a_8862_4192.t17                  0.00124173
x1.en.t46                                  1.8
x1.vss.t265                        7.30062e-05
x1.vss.t135                        5.55053e-05
x1.vss.t133                        5.54032e-05
x1.vss.t134                        7.00256e-05
x1.vout.t81                        1.39084e-05
x1.a_n735_8972.t38                     1.50981
x1.vdd.t99                                 1.8
x1.vss.t128                        1.20901e-05
x1.vss.t127                        1.20901e-05
x1.a_3868_4185.t48                 1.21958e-05
x1.a_3868_4185.t47                 1.21978e-05
x1.vss.t131                        1.20901e-05
x1.vss.t132                        1.20901e-05
x1.a_n935_8875.t25                     1.50889
x1.a_n935_8875.t24                     1.50889
x1.vdd.t31                                 1.8
x1.a_3868_4185.t19                  1.2198e-05
x1.ibias.t60                          0.599205
x1.a_3329_8823.t25                 1.28951e-05
x1.a_3329_8823.t52                  1.2903e-05
x1.vss.t125                        1.22091e-05
x1.vss.t126                        1.22091e-05
x1.vss.t248                        7.29652e-05
x1.en.t47                                  1.8
x1.a_8862_4192.t16                  0.00124126
x1.a_3329_8823.t6                  1.28951e-05
x1.ibias.t61                          0.599205
x1.a_3868_4185.t18                 1.21987e-05
x1.vdd.t72                                 1.8
x1.vdd.t70                                 1.8
x1.a_3868_4185.t67                 1.21962e-05
x1.en.t48                                  1.8
x1.vss.t264                        1.20983e-05
x1.vout.t63                        1.39098e-05
x1.a_n735_8972.t39                     1.50981
x1.vdd.t14                                 1.8
x1.vout.t68                        1.39074e-05
x1.a_n735_8972.t40                     1.50981
x1.vdd.t20                                 1.8
x1.vdd.t2                                  1.8
x1.a_n1962_4406.t99                1.23035e-05
x1.en.t49                                  1.8
x1.vss.t263                        1.21261e-05
x1.a_8862_4192.t15                  0.00124131
x1.en.t50                                  1.8
x1.vss.t262                        9.15755e-05
x1.vss.t124                        1.22094e-05
x1.vss.t123                        1.22094e-05
x1.a_3329_8823.t51                 1.29033e-05
x1.a_n1962_4406.t98                1.23035e-05
x1.en.t51                                  1.8
x1.vss.t261                        1.21222e-05
x1.vdd.t69                                 1.8
x1.vdd.t67                                 1.8
x1.vdd.t68                                 1.8
x1.a_3329_8823.t58                 1.29036e-05
x1.vp.t6                                     0
x1.a_n735_8972.t17                     1.50981
x1.vss.t122                         1.2115e-05
x1.vss.t121                         1.2115e-05
x1.a_n1962_4406.t71                1.23063e-05
x1.a_3329_8823.t79                 1.29036e-05
x1.vn.t9                           1.38852e-05
x1.a_n935_8875.t6                      1.50889
x1.vout.t40                        1.38313e-05
x1.ibias.t62                          0.599205
x1.a_n1962_4406.t29                1.23067e-05
x1.a_n935_8875.t5                      1.50889
x1.vn.t10                          1.38852e-05
x1.a_3329_8823.t70                 1.29042e-05
x1.vdd.t66                                 1.8
x1.vdd.t64                                 1.8
x1.vdd.t65                                 1.8
x1.a_n735_8972.t5                      1.50981
x1.a_n935_8875.t37                     1.50889
x1.vdd.t28                                 1.8
x1.vout.t66                        1.39088e-05
x1.a_n735_8972.t41                     1.50981
x1.vdd.t18                                 1.8
x1.vss.t120                         1.2115e-05
x1.vss.t119                         1.2115e-05
x1.a_n1962_4406.t97                1.23021e-05
x1.en.t52                                  1.8
x1.vss.t260                        1.21332e-05
x1.a_n1962_4406.t28                1.23045e-05
x1.ibias.t63                          0.599205
x1.vout.t15                        1.38313e-05
x1.vss.t118                         1.2115e-05
x1.vss.t117                         1.2115e-05
x1.vdd.t4                                  1.8
x1.a_n935_8875.t38                     1.50889
x1.a_n735_8972.t0                      1.50981
x1.a_n735_8972.t16                     1.50981
x1.vp.t7                                     0
x1.a_3329_8823.t74                 1.29046e-05
x1.a_3329_8823.t75                 1.29042e-05
x1.vp.t8                                     0
x1.a_n735_8972.t15                     1.50981
x1.a_n1962_4406.t96                1.23038e-05
x1.en.t53                                  1.8
x1.vss.t259                         1.2135e-05
x1.vdd.t63                                 1.8
x1.vdd.t61                                 1.8
x1.vdd.t62                                 1.8
x1.vss.t116                         1.2115e-05
x1.vss.t115                         1.2115e-05
x1.a_n1962_4406.t70                1.23064e-05
x1.a_n1962_4406.t27                1.23046e-05
x1.ibias.t64                          0.599205
x1.vout.t18                        1.38309e-05
x1.vss.t258                        1.21332e-05
x1.en.t54                                  1.8
x1.a_n1962_4406.t95                1.23036e-05
x1.vout.t10                        1.38312e-05
x1.ibias.t65                          0.599205
x1.a_n1962_4406.t26                1.23046e-05
x1.a_n735_8972.t14                     1.50981
x1.vp.t9                                     0
x1.a_3329_8823.t78                 1.29033e-05
x1.a_3329_8823.t59                 1.29046e-05
x1.vp.t10                                    0
x1.a_n735_8972.t13                     1.50981
x1.a_n735_8972.t12                     1.50981
x1.vp.t11                                    0
x1.a_3329_8823.t69                 1.29033e-05
x1.a_n1962_4406.t69                1.23025e-05
x1.vss.t113                         1.2115e-05
x1.vss.t114                         1.2115e-05
x1.vss.t257                        1.21299e-05
x1.en.t55                                  1.8
x1.a_n1962_4406.t94                1.23035e-05
x1.a_n1962_4406.t68                1.23063e-05
x1.vss.t111                         1.2115e-05
x1.vss.t112                         1.2115e-05
x1.vout.t51                        1.38308e-05
x1.ibias.t66                          0.599205
x1.a_n1962_4406.t25                1.23047e-05
x1.vout.t30                        1.38325e-05
x1.ibias.t67                          0.599205
x1.a_n1962_4406.t24                1.23085e-05
x1.vout.t24                        1.38325e-05
x1.ibias.t68                          0.599205
x1.a_n1962_4406.t23                1.23067e-05
x1.vss.t256                        0.000104265
x1.en.t56                                  1.8
x1.a_8862_4192.t14                  0.00124295
x1.a_8862_4192.t13                  0.00124286
x1.en.t57                                  1.8
x1.vss.t255                        7.65734e-05
x1.vdd.t21                                 1.8
x1.a_n935_8875.t22                     1.50889
x1.a_n935_8875.t23                     1.50889
x1.a_3329_8823.t50                 1.29031e-05
x1.vss.t109                        1.22092e-05
x1.vss.t110                        1.22092e-05
x1.vout.t56                        1.38308e-05
x1.ibias.t69                          0.599205
x1.a_n1962_4406.t22                1.23085e-05
x1.a_n1962_4406.t21                1.23067e-05
x1.ibias.t70                          0.599205
x1.vout.t20                        1.38313e-05
x1.a_3329_8823.t16                 1.28955e-05
x1.ibias.t71                          0.599205
x1.a_3868_4185.t17                 1.21987e-05
x1.vss.t108                        1.20901e-05
x1.vss.t107                        1.20901e-05
x1.a_3868_4185.t46                 1.21977e-05
x1.vout.t79                        1.39089e-05
x1.a_n735_8972.t42                     1.50981
x1.vdd.t38                                 1.8
x1.vout.t34                        1.38309e-05
x1.ibias.t72                          0.599205
x1.a_n1962_4406.t20                1.23046e-05
x1.a_n1962_4406.t19                1.23067e-05
x1.ibias.t73                          0.599205
x1.vout.t11                        1.38318e-05
x1.vss.t106                        1.20901e-05
x1.vss.t105                        1.20901e-05
x1.a_3868_4185.t45                 1.21977e-05
x1.vss.t104                        1.22091e-05
x1.vss.t101                        1.22091e-05
x1.vss.t103                          1.221e-05
x1.vss.t102                        1.30023e-05
x1.a_n1962_4406.t18                1.23045e-05
x1.ibias.t74                          0.599205
x1.vout.t31                        1.38312e-05
x1.vss.t100                         7.0664e-05
x1.vss.t99                         6.33197e-05
x1.vss.t254                        7.59883e-05
x1.en.t58                                  1.8
x1.a_8862_4192.t12                  0.00124146
x1.vout.t8                         1.38313e-05
x1.ibias.t75                          0.599205
x1.a_n1962_4406.t17                1.23045e-05
x1.a_n1962_4406.t16                1.23046e-05
x1.ibias.t76                          0.599205
x1.vout.t32                        1.38316e-05
x1.a_n1962_4406.t15                1.23046e-05
x1.ibias.t77                          0.599205
x1.vout.t4                         1.38322e-05
x1.a_3868_4185.t16                 1.21987e-05
x1.ibias.t78                          0.599205
x1.a_3329_8823.t21                 1.28956e-05
x1.vss.t98                         6.22986e-05
x1.vss.t97                         6.22976e-05
x1.ibias.t9                           0.599108
x1.a_n1962_4406.t93                1.23036e-05
x1.en.t59                                  1.8
x1.vss.t253                        1.21262e-05
x1.vout.t19                        1.38318e-05
x1.ibias.t79                          0.599205
x1.a_n1962_4406.t14                1.23045e-05
x1.a_n1962_4406.t92                1.23036e-05
x1.en.t60                                  1.8
x1.vss.t252                        1.21223e-05
x1.a_3868_4185.t15                 1.21967e-05
x1.ibias.t80                          0.599205
x1.a_3329_8823.t36                 1.28955e-05
x1.vss.t251                        9.29888e-05
x1.en.t61                                  1.8
x1.a_8862_4192.t11                  0.00124273
x1.vdd.t60                                 1.8
x1.vdd.t58                                 1.8
x1.vdd.t59                                 1.8
x1.a_n735_8972.t11                     1.50981
x1.vp.t12                                    0
x1.a_3329_8823.t40                 1.29041e-05
x1.vss.t250                        1.21261e-05
x1.en.t62                                  1.8
x1.a_n1962_4406.t91                1.23036e-05
x1.vss.t96                          1.2115e-05
x1.vss.t95                          1.2115e-05
x1.a_8862_4192.t10                  0.00124154
x1.en.t63                                  1.8
x1.vss.t249                        0.000102893
x1.a_3868_4185.t14                 1.21967e-05
x1.ibias.t81                          0.599205
x1.a_3329_8823.t32                 1.28954e-05
x1.vss.t247                        1.21222e-05
x1.en.t64                                  1.8
x1.a_n1962_4406.t90                1.23036e-05
x1.a_3329_8823.t23                 1.28956e-05
x1.ibias.t82                          0.599205
x1.a_3868_4185.t13                 1.21987e-05
x1.a_8862_4192.t9                   0.00124267
x1.en.t65                                  1.8
x1.vss.t246                        7.36926e-05
x1.vss.t245                        1.20983e-05
x1.en.t66                                  1.8
x1.a_3868_4185.t66                 1.21955e-05
x1.a_n735_8972.t1                      1.50981
x1.a_n935_8875.t39                     1.50889
x1.vdd.t9                                  1.8
x1.vdd.t35                                 1.8
x1.a_n735_8972.t43                     1.50981
x1.vout.t76                        1.39091e-05
x1.a_n1962_4406.t13                1.23046e-05
x1.ibias.t83                          0.599205
x1.vout.t43                         1.3831e-05
x1.a_3329_8823.t45                 1.29041e-05
x1.vn.t11                          1.38852e-05
x1.a_n935_8875.t4                      1.50889
x1.vout.t88                         1.3908e-05
x1.a_n735_8972.t44                     1.50981
x1.vdd.t108                                1.8
x1.vss.t244                         1.2128e-05
x1.en.t67                                  1.8
x1.a_n1962_4406.t89                1.23035e-05
x1.a_3868_4185.t12                 1.21987e-05
x1.ibias.t84                          0.599205
x1.a_3329_8823.t10                 1.28956e-05
x1.vss.t94                         1.20901e-05
x1.vss.t93                         1.20901e-05
x1.a_3868_4185.t44                 1.21978e-05
x1.a_3868_4185.t43                 1.21958e-05
x1.vss.t91                         1.20901e-05
x1.vss.t92                         1.20901e-05
x1.a_3329_8823.t7                  1.28953e-05
x1.ibias.t85                          0.599205
x1.a_3868_4185.t11                 1.21967e-05
x1.vdd.t10                                 1.8
x1.a_n935_8875.t40                     1.50889
x1.a_n735_8972.t2                      1.50981
x1.vss.t90                         1.22102e-05
x1.vss.t88                         1.22094e-05
x1.a_n935_8875.t17                     1.50889
x1.a_n935_8875.t3                      1.50889
x1.vn.t12                          1.38852e-05
x1.a_3329_8823.t57                 1.29032e-05
x1.vdd.t57                                 1.8
x1.vdd.t55                                 1.8
x1.vdd.t56                                 1.8
x1.vss.t243                        1.21242e-05
x1.en.t68                                  1.8
x1.a_n1962_4406.t88                1.23035e-05
x1.a_3868_4185.t10                 1.21979e-05
x1.ibias.t86                          0.599205
x1.a_3329_8823.t3                  1.28952e-05
x1.vss.t87                         6.78373e-05
x1.vss.t86                         6.04794e-05
x1.vss.t242                        7.35458e-05
x1.en.t69                                  1.8
x1.a_8862_4192.t8                   0.00124174
x1.a_3329_8823.t29                 1.28952e-05
x1.ibias.t87                          0.599205
x1.a_3868_4185.t9                  1.21967e-05
x1.vout.t74                        1.39091e-05
x1.a_n735_8972.t45                     1.50981
x1.vdd.t32                                 1.8
x1.a_3868_4185.t65                 1.21962e-05
x1.en.t70                                  1.8
x1.vss.t241                        1.20984e-05
x1.vdd.t102                                1.8
x1.a_n735_8972.t46                     1.50981
x1.vout.t84                        1.39074e-05
x1.a_8862_4192.t7                    0.0012418
x1.en.t71                                  1.8
x1.vss.t240                         9.2505e-05
x1.vss.t239                        1.20984e-05
x1.en.t72                                  1.8
x1.a_3868_4185.t64                 1.21962e-05
x1.vdd.t12                                 1.8
x1.a_n935_8875.t20                     1.50889
x1.a_n935_8875.t21                     1.50889
x1.a_n935_8875.t2                      1.50889
x1.vn.t13                          1.38852e-05
x1.a_3329_8823.t68                 1.29047e-05
x1.vdd.t54                                 1.8
x1.vdd.t53                                 1.8
x1.a_n935_8875.t16                     1.50889
x1.vss.t83                         1.22093e-05
x1.vss.t85                         1.22104e-05
x1.vss.t82                          1.2115e-05
x1.vss.t81                          1.2115e-05
x1.vout.t85                        1.39077e-05
x1.a_n735_8972.t47                     1.50981
x1.vdd.t104                                1.8
x1.vss.t80                          1.2115e-05
x1.vss.t79                          1.2115e-05
x1.a_n1962_4406.t67                1.23026e-05
x1.a_3868_4185.t8                  1.21967e-05
x1.ibias.t88                          0.599205
x1.a_3329_8823.t26                 1.28953e-05
x1.vss.t78                          1.2115e-05
x1.vss.t76                          1.2115e-05
x1.vdd.t107                                1.8
x1.a_n735_8972.t48                     1.50981
x1.vout.t87                        1.39088e-05
x1.a_n1962_4406.t66                1.23063e-05
x1.vss.t74                          1.2115e-05
x1.vss.t75                          1.2115e-05
x1.vss.t73                         1.22092e-05
x1.vss.t71                         1.22092e-05
x1.vss.t72                         1.22102e-05
x1.vdd.t24                                 1.8
x1.a_n735_8972.t49                     1.50981
x1.vout.t70                         1.3909e-05
x1.vss.t238                         1.2135e-05
x1.en.t73                                  1.8
x1.a_n1962_4406.t87                1.23037e-05
x1.vss.t70                          1.2115e-05
x1.vss.t68                          1.2115e-05
x1.vss.t69                          1.2115e-05
x1.vout.t72                        1.39067e-05
x1.a_n735_8972.t50                     1.50981
x1.vdd.t26                                 1.8
x1.vout.t41                        1.38309e-05
x1.ibias.t89                          0.599205
x1.a_n1962_4406.t12                1.23067e-05
x1.a_n1962_4406.t65                1.23063e-05
x1.vss.t66                          1.2115e-05
x1.vss.t67                          1.2115e-05
x1.a_n1962_4406.t86                1.23037e-05
x1.en.t74                                  1.8
x1.vss.t237                        1.21317e-05
x1.vss.t65                         1.22094e-05
x1.vss.t63                         1.22094e-05
x1.a_3329_8823.t49                 1.29034e-05
x1.a_3329_8823.t48                 1.29031e-05
x1.vss.t60                         1.22092e-05
x1.vss.t62                         1.22092e-05
x1.a_n1962_4406.t11                1.23046e-05
x1.ibias.t90                          0.599205
x1.vout.t47                        1.38311e-05
x1.vss.t59                          1.2115e-05
x1.vss.t58                          1.2115e-05
x1.a_n1962_4406.t64                1.23063e-05
x1.vdd.t1                                  1.8
x1.a_n935_8875.t18                     1.50889
x1.a_n935_8875.t19                     1.50889
x1.a_n735_8972.t10                     1.50981
x1.vp.t13                                    0
x1.a_3329_8823.t41                 1.29045e-05
x1.a_n935_8875.t1                      1.50889
x1.vn.t14                          1.38852e-05
x1.a_3329_8823.t72                 1.29039e-05
x1.vss.t312                        1.36723e-05
x1.vdd.t52                                 1.8
x1.vdd.t50                                 1.8
x1.vdd.t51                                 1.8
x1.vout.t44                         1.3831e-05
x1.ibias.t91                          0.599205
x1.a_n1962_4406.t10                1.23046e-05
x1.vss.t57                          1.2115e-05
x1.vss.t55                          1.2115e-05
x1.a_n1962_4406.t63                1.23063e-05
x1.a_3329_8823.t30                 1.28955e-05
x1.ibias.t92                          0.599205
x1.a_3868_4185.t7                   1.2198e-05
x1.vdd.t49                                 1.8
x1.vdd.t46                                 1.8
x1.vdd.t48                                 1.8
x1.vout.t82                         1.3909e-05
x1.a_n735_8972.t51                     1.50981
x1.vdd.t100                                1.8
x1.vout.t36                        1.38317e-05
x1.ibias.t93                          0.599205
x1.a_n1962_4406.t9                 1.23067e-05
x1.vout.t37                        1.38322e-05
x1.ibias.t94                          0.599205
x1.a_n1962_4406.t8                 1.23067e-05
x1.a_3329_8823.t22                 1.28954e-05
x1.ibias.t95                          0.599205
x1.a_3868_4185.t6                   1.2198e-05
x1.a_3329_8823.t60                 1.29039e-05
x1.vp.t14                                    0
x1.a_n735_8972.t9                      1.50981
x1.vss.t213                        1.35024e-05
x1.a_n1962_4406.t85                 1.2302e-05
x1.en.t75                                  1.8
x1.vss.t236                        1.21297e-05
x1.a_9909_7861.t1                      1.50981
x1.vout.t78                        1.38599e-05
x1.a_3868_4185.t42                 1.21978e-05
x1.vss.t53                         1.20901e-05
x1.vss.t54                         1.20901e-05
x1.vout.t80                        1.39094e-05
x1.a_n735_8972.t52                     1.50981
x1.vdd.t98                                 1.8
x1.a_n1962_4406.t7                 1.23044e-05
x1.ibias.t96                          0.599205
x1.vout.t12                        1.38317e-05
x1.a_n1962_4406.t6                 1.23044e-05
x1.ibias.t97                          0.599205
x1.vout.t5                         1.38322e-05
x1.a_3868_4185.t63                 1.21955e-05
x1.en.t76                                  1.8
x1.vss.t235                        1.20985e-05
x1.vss.t234                        1.20985e-05
x1.en.t77                                  1.8
x1.a_3868_4185.t62                 1.21962e-05
x1.vss.t233                        1.20985e-05
x1.en.t78                                  1.8
x1.a_3868_4185.t61                 1.21962e-05
x1.a_3868_4185.t41                 1.21978e-05
x1.vss.t50                         1.20901e-05
x1.vss.t52                         1.20901e-05
x1.a_n735_8972.t6                      1.50981
x1.a_n935_8875.t41                     1.50889
x1.vdd.t34                                 1.8
x1.a_n735_8972.t3                      1.50981
x1.vss.t47                         1.22091e-05
x1.vss.t49                         1.22102e-05
x1.vss.t48                         1.33007e-05
x1.a_n1962_4406.t84                1.23037e-05
x1.en.t79                                  1.8
x1.vss.t223                        1.21349e-05
x1.vss.t232                        1.21297e-05
x1.en.t80                                  1.8
x1.a_n1962_4406.t83                1.23036e-05
x1.vout.t1                         1.38316e-05
x1.ibias.t98                          0.599205
x1.a_n1962_4406.t5                 1.23046e-05
x1.vss.t46                          1.2115e-05
x1.vss.t44                          1.2115e-05
x1.vss.t43                         7.08615e-05
x1.vss.t42                         6.35066e-05
x1.a_3868_4185.t60                 1.21955e-05
x1.en.t81                                  1.8
x1.vss.t231                        1.20985e-05
x1.a_3329_8823.t76                 1.29044e-05
x1.vp.t15                                    0
x1.a_n735_8972.t8                      1.50981
x1.a_n1962_4406.t62                1.23025e-05
x1.vss.t40                          1.2115e-05
x1.vss.t41                          1.2115e-05
x1.vss.t228                        1.21262e-05
x1.en.t82                                  1.8
x1.a_n1962_4406.t82                1.23035e-05
x1.vout.t7                         1.38322e-05
x1.ibias.t99                          0.599205
x1.a_n1962_4406.t4                 1.23046e-05
x1.a_n1962_4406.t61                1.23024e-05
x1.vss.t37                          1.2115e-05
x1.vss.t39                          1.2115e-05
x1.vss.t230                        1.21223e-05
x1.en.t83                                  1.8
x1.a_n1962_4406.t81                1.23034e-05
x1.vss.t229                        1.20985e-05
x1.en.t84                                  1.8
x1.a_3868_4185.t59                 1.21962e-05
x1.vss.t227                        7.55143e-05
x1.en.t85                                  1.8
x1.a_8862_4192.t6                   0.00124284
x1.vss.t226                        1.20985e-05
x1.en.t86                                  1.8
x1.a_3868_4185.t58                 1.21962e-05
x1.vss.t36                          1.2115e-05
x1.vss.t35                          1.2115e-05
x1.a_3868_4185.t5                  1.21967e-05
x1.ibias.t100                         0.599205
x1.a_3329_8823.t15                 1.28954e-05
x1.a_3868_4185.t4                  1.21967e-05
x1.ibias.t101                         0.599205
x1.a_3329_8823.t37                 1.28953e-05
x1.a_n1962_4406.t3                 1.23085e-05
x1.ibias.t102                         0.599205
x1.vout.t48                        1.38308e-05
x1.a_8862_4192.t5                   0.00124293
x1.en.t87                                  1.8
x1.vss.t225                        0.000104265
x1.vout.t60                        1.39084e-05
x1.a_n735_8972.t53                     1.50981
x1.vdd.t3                                  1.8
x1.vdd.t6                                  1.8
x1.a_n735_8972.t54                     1.50981
x1.vout.t61                         1.3908e-05
x1.a_n1962_4406.t80                1.23037e-05
x1.en.t88                                  1.8
x1.vss.t224                        1.21333e-05
x1.a_3329_8823.t33                 1.28954e-05
x1.ibias.t103                         0.599205
x1.a_3868_4185.t3                  1.21967e-05
x1.ibias.t8                           0.599103
x1.vss.t33                         5.67409e-05
x1.vss.t34                         5.67419e-05
x1.vss.t32                         5.86478e-05
x1.vss.t29                         5.86992e-05
x1.vss.t31                         7.34232e-05
x1.vout.t33                        1.38312e-05
x1.ibias.t104                         0.599205
x1.a_n1962_4406.t2                 1.23045e-05
x1.a_3329_8823.t20                 1.28953e-05
x1.ibias.t105                         0.599205
x1.a_3868_4185.t2                  1.21967e-05
x1.vss.t28                         1.20901e-05
x1.vss.t26                         1.20901e-05
x1.a_3868_4185.t40                 1.21978e-05
x1.vdd.t45                                 1.8
x1.vdd.t43                                 1.8
x1.vdd.t42                                 1.8
x1.vdd.t39                                 1.8
x1.vdd.t41                                 1.8
x1.a_3868_4185.t1                  1.21987e-05
x1.ibias.t106                         0.599205
x1.a_3329_8823.t31                 1.28955e-05
x1.a_3868_4185.t57                 1.21962e-05
x1.en.t89                                  1.8
x1.vss.t222                        1.20985e-05
x1.a_3329_8823.t19                 1.28952e-05
x1.ibias.t107                         0.599205
x1.a_3868_4185.t0                  1.21987e-05
x1.a_3868_4185.t56                 1.21962e-05
x1.en.t90                                  1.8
x1.vss.t221                        1.20985e-05
x1.a_n1962_4406.t1                 1.23045e-05
x1.ibias.t108                         0.599205
x1.vout.t27                        1.38316e-05
x1.vss.t25                          1.2115e-05
x1.vss.t24                          1.2115e-05
x1.a_n1962_4406.t60                1.23063e-05
x1.vss.t23                         6.84159e-05
x1.vss.t21                         6.10586e-05
x1.vss.t220                        7.40253e-05
x1.en.t91                                  1.8
x1.a_8862_4192.t4                   0.00124267
x1.a_n935_8875.t0                      1.50889
x1.vn.t15                          1.38852e-05
x1.a_3329_8823.t44                 1.29044e-05
x1.a_n1962_4406.t0                 1.23067e-05
x1.ibias.t109                         0.599205
x1.vout.t59                        1.38321e-05
x1.en.n0                                   1.8
x1.en.n3                                   1.8
x1.en.n7                                   1.8
x1.en.n11                                  1.8
x1.en.n15                                  1.8
x1.en.n38                                  1.8
x1.en.n41                                  1.8
x1.en.n44                                  1.8
x1.en.n50                                  1.8
x1.en.n56                                  1.8
x1.en.n62                                  1.8
x1.en.n68                                  1.8
x1.en.n74                                  1.8
x1.en.n80                                  1.8
x1.en.n19                                  1.8
x1.en.n22                                  1.8
x1.en.n26                                  1.8
x1.en.n30                                  1.8
x1.en.n34                                  1.8
x1.en.n87                                  1.8
x1.en.n89                                  1.8
x1.en.n88                                  1.8
x1.en.n2                                   1.8
x1.en.n1                                   1.8
x1.en.n5                                   1.8
x1.en.n4                                   1.8
x1.en.n9                                   1.8
x1.en.n8                                   1.8
x1.en.n13                                  1.8
x1.en.n12                                  1.8
x1.en.n17                                  1.8
x1.en.n16                                  1.8
x1.en.n39                                  1.8
x1.en.n40                                  1.8
x1.en.n42                                  1.8
x1.en.n43                                  1.8
x1.en.n45                                  1.8
x1.en.n46                                  1.8
x1.en.n47                                  1.8
x1.en.n48                                  1.8
x1.en.n51                                  1.8
x1.en.n52                                  1.8
x1.en.n53                                  1.8
x1.en.n54                                  1.8
x1.en.n57                                  1.8
x1.en.n58                                  1.8
x1.en.n59                                  1.8
x1.en.n60                                  1.8
x1.en.n63                                  1.8
x1.en.n64                                  1.8
x1.en.n65                                  1.8
x1.en.n66                                  1.8
x1.en.n69                                  1.8
x1.en.n70                                  1.8
x1.en.n71                                  1.8
x1.en.n72                                  1.8
x1.en.n75                                  1.8
x1.en.n76                                  1.8
x1.en.n77                                  1.8
x1.en.n78                                  1.8
x1.en.n81                                  1.8
x1.en.n82                                  1.8
x1.en.n20                                  1.8
x1.en.n21                                  1.8
x1.en.n23                                  1.8
x1.en.n24                                  1.8
x1.en.n27                                  1.8
x1.en.n28                                  1.8
x1.en.n31                                  1.8
x1.en.n32                                  1.8
x1.en.n35                                  1.8
x1.en.n36                                  1.8
x1.en.n84                                  1.8
x1.en.n83                                  1.8
x1.en.n90                                  1.8
x1.en.n49                                  1.8
x1.en.n25                                  1.8
x1.en.n29                                  1.8
x1.en.n37                                  1.8
x1.en.n6                                   1.8
x1.en.n61                                  1.8
x1.en.n73                                  1.8
x1.en.n10                                  1.8
x1.en.n14                                  1.8
x1.en.n18                                  1.8
x1.en.n33                                  1.8
x1.en.n55                                  1.8
x1.en.n67                                  1.8
x1.en.n79                                  1.8
x1.en.n86                                  1.8
x1.en.n85                                  1.8
x1.vss.n1977                       1.42965e-05
x1.vss.n1888                       5.86327e-05
x1.vss.n2092                       1.29115e-05
x1.vss.n1496                        1.2228e-05
x1.vss.n2383                       5.84278e-05
x1.vss.n123                        5.88148e-05
x1.vss.n1376                       1.22268e-05
x1.vss.n719                        1.22274e-05
x1.vss.n1211                       1.22027e-05
x1.vss.n825                        1.21949e-05
x1.vss.n2192                       1.43081e-05
x1.vss.n243                        1.43889e-05
x1.vss.n2109                       1.27542e-05
x1.vss.n668                        1.25881e-05
x1.vss.n2129                       1.35117e-05
x1.vss.n317                         1.3432e-05
x1.vss.n661                         1.3429e-05
x1.vss.n314                        1.35072e-05
x1.vss.n2337                       4.98552e-05
x1.vss.n165                        4.89523e-05
x1.vss.n1494                       1.22274e-05
x1.vss.n722                        1.22268e-05
x1.vss.n1905                       1.42155e-05
x1.vss.n1529                       1.41251e-05
x1.vss.n187                        4.90023e-05
x1.vss.n167                        4.99059e-05
x1.vss.n2224                       1.59961e-05
x1.vss.n213                         1.6345e-05
x1.vss.n590                        1.48696e-05
x1.vss.n211                        1.49678e-05
x1.vss.n1207                       1.22339e-05
x1.vss.n826                          1.224e-05
x1.vss.n2090                        1.3007e-05
x1.vss.n1499                       1.31101e-05
x1.vss.n1886                        5.8705e-05
x1.vss.n1534                       5.87457e-05
x1.vss.n1879                        5.8705e-05
x1.vss.n1878                       5.87457e-05
x1.vss.n1639                       5.78633e-05
x1.vss.n127                        5.74382e-05
x1.vss.n524                        1.65989e-05
x1.vss.n523                        1.65891e-05
x1.vss.n568                         1.6172e-05
x1.vss.n567                        1.62886e-05
x1.vss.n1663                       5.83417e-05
x1.vss.n1662                       5.83131e-05
x1.vss.n1707                       5.86575e-05
x1.vss.n1706                       5.85981e-05
x1.vss.n2335                       4.81047e-05
x1.vss.n2226                       1.66618e-05
x1.vss.n164                        4.96242e-05
x1.vss.n2333                       4.87976e-05
x1.vss.n2332                       4.94195e-05
x1.vss.n2331                        4.9242e-05
x1.vss.n2227                       4.86908e-05
x1.vss.n2330                       4.90887e-05
x1.vss.n2329                       4.86074e-05
x1.vss.n2328                       4.89564e-05
x1.vss.n2327                       4.85383e-05
x1.vss.n2326                       4.84798e-05
x1.vss.n2325                       4.88423e-05
x1.vss.n2324                       4.87442e-05
x1.vss.n2323                       4.84297e-05
x1.vss.n2322                       4.83868e-05
x1.vss.n2321                       4.86598e-05
x1.vss.n2320                       4.85874e-05
x1.vss.n2319                         4.835e-05
x1.vss.n2318                       4.83184e-05
x1.vss.n2317                       4.85253e-05
x1.vss.n2316                       4.84723e-05
x1.vss.n2315                       4.82915e-05
x1.vss.n2314                       4.82686e-05
x1.vss.n2313                       4.84272e-05
x1.vss.n2312                       4.83891e-05
x1.vss.n2311                       4.82492e-05
x1.vss.n2310                       4.82329e-05
x1.vss.n2309                       4.83571e-05
x1.vss.n2308                       4.83305e-05
x1.vss.n2307                       4.82194e-05
x1.vss.n2306                       4.82084e-05
x1.vss.n2305                       4.83088e-05
x1.vss.n2304                       4.82914e-05
x1.vss.n2303                       4.81996e-05
x1.vss.n2302                       4.81928e-05
x1.vss.n2301                       4.82781e-05
x1.vss.n2300                       4.82685e-05
x1.vss.n2299                        4.8188e-05
x1.vss.n2298                       4.81849e-05
x1.vss.n2297                       4.82625e-05
x1.vss.n2296                       4.82598e-05
x1.vss.n2295                       4.81835e-05
x1.vss.n2294                       4.81839e-05
x1.vss.n2293                       4.82605e-05
x1.vss.n2292                       4.82645e-05
x1.vss.n2291                       4.81859e-05
x1.vss.n2290                       4.81897e-05
x1.vss.n2289                        4.8272e-05
x1.vss.n2288                       4.82831e-05
x1.vss.n2287                       4.81953e-05
x1.vss.n2286                       4.82029e-05
x1.vss.n2285                        4.8298e-05
x1.vss.n2284                       4.83171e-05
x1.vss.n2283                       4.82126e-05
x1.vss.n2282                       4.82246e-05
x1.vss.n2281                       4.83407e-05
x1.vss.n2280                       4.83695e-05
x1.vss.n2279                       4.82392e-05
x1.vss.n2278                       4.82567e-05
x1.vss.n2277                       4.84039e-05
x1.vss.n2276                       4.84447e-05
x1.vss.n2275                       4.82775e-05
x1.vss.n2274                        4.8302e-05
x1.vss.n2273                       4.84929e-05
x1.vss.n2272                       4.85495e-05
x1.vss.n2271                       4.83307e-05
x1.vss.n2270                       4.83643e-05
x1.vss.n2269                       4.86156e-05
x1.vss.n2268                       4.86927e-05
x1.vss.n2267                       4.84035e-05
x1.vss.n2266                       4.84492e-05
x1.vss.n2265                       4.87825e-05
x1.vss.n2264                       4.88868e-05
x1.vss.n2263                       4.85024e-05
x1.vss.n2262                       4.85646e-05
x1.vss.n2261                        4.9008e-05
x1.vss.n2260                       4.91486e-05
x1.vss.n2259                       4.86379e-05
x1.vss.n2258                       4.87264e-05
x1.vss.n2257                       4.93115e-05
x1.vss.n2256                          4.95e-05
x1.vss.n2255                       4.88394e-05
x1.vss.n2254                       4.97175e-05
x1.vss.n2253                       5.05039e-05
x1.vss.n2336                       4.91861e-05
x1.vss.n2252                       5.07788e-05
x1.vss.n2251                       5.02738e-05
x1.vss.n166                        4.97379e-05
x1.vss.n2250                       5.10758e-05
x1.vss.n162                        5.06624e-05
x1.vss.n2342                       5.02454e-05
x1.vss.n2249                       5.13909e-05
x1.vss.n161                        5.10534e-05
x1.vss.n2343                       5.07193e-05
x1.vss.n2248                       5.17208e-05
x1.vss.n160                         5.1442e-05
x1.vss.n2344                       5.11676e-05
x1.vss.n2247                       5.20628e-05
x1.vss.n2246                       5.18276e-05
x1.vss.n159                         5.1596e-05
x1.vss.n2245                       5.24152e-05
x1.vss.n155                        5.22109e-05
x1.vss.n2350                        5.2009e-05
x1.vss.n2244                       5.27765e-05
x1.vss.n154                        5.25926e-05
x1.vss.n2351                       5.24098e-05
x1.vss.n2243                       5.31458e-05
x1.vss.n153                        5.29735e-05
x1.vss.n2352                       5.28012e-05
x1.vss.n2242                       5.35227e-05
x1.vss.n2241                       5.33544e-05
x1.vss.n152                        5.31852e-05
x1.vss.n2240                        5.3907e-05
x1.vss.n148                         5.3736e-05
x1.vss.n2358                       5.35631e-05
x1.vss.n2239                       5.42987e-05
x1.vss.n147                        5.41187e-05
x1.vss.n2359                        5.3936e-05
x1.vss.n2238                       5.46983e-05
x1.vss.n146                        5.45034e-05
x1.vss.n2360                       5.43048e-05
x1.vss.n2237                       5.51065e-05
x1.vss.n2236                       5.48904e-05
x1.vss.n145                        5.46699e-05
x1.vss.n2235                       5.55241e-05
x1.vss.n141                        5.52805e-05
x1.vss.n2366                       5.50315e-05
x1.vss.n2234                       5.59523e-05
x1.vss.n140                        5.56742e-05
x1.vss.n2367                       5.53897e-05
x1.vss.n2233                       5.63928e-05
x1.vss.n139                        5.60721e-05
x1.vss.n2368                       5.57444e-05
x1.vss.n2232                       5.68472e-05
x1.vss.n2231                       5.64748e-05
x1.vss.n135                        5.60951e-05
x1.vss.n2230                        5.7318e-05
x1.vss.n134                        5.68825e-05
x1.vss.n2374                        5.6441e-05
x1.vss.n2229                       5.78078e-05
x1.vss.n133                        5.72942e-05
x1.vss.n2375                       5.67813e-05
x1.vss.n2228                       5.83201e-05
x1.vss.n132                        5.77053e-05
x1.vss.n2376                       5.71149e-05
x1.vss.n124                        5.81001e-05
x1.vss.n122                        5.88593e-05
x1.vss.n126                        5.74405e-05
x1.vss.n2384                       5.94317e-05
x1.vss.n2382                       5.77573e-05
x1.vss.n121                        5.93755e-05
x1.vss.n1715                       5.88087e-05
x1.vss.n1714                       5.92461e-05
x1.vss.n1713                       5.91359e-05
x1.vss.n1638                       5.87723e-05
x1.vss.n1712                       5.90415e-05
x1.vss.n1711                       5.87308e-05
x1.vss.n1710                       5.86919e-05
x1.vss.n1709                       5.89608e-05
x1.vss.n1708                       5.88918e-05
x1.vss.n1705                       5.87743e-05
x1.vss.n1704                       5.87233e-05
x1.vss.n1703                       5.85723e-05
x1.vss.n1702                       5.85497e-05
x1.vss.n1701                       5.86788e-05
x1.vss.n1700                       5.86401e-05
x1.vss.n1699                         5.853e-05
x1.vss.n1698                       5.85128e-05
x1.vss.n1697                       5.86061e-05
x1.vss.n1696                       5.85763e-05
x1.vss.n1695                       5.84976e-05
x1.vss.n1694                       5.84842e-05
x1.vss.n1693                       5.85498e-05
x1.vss.n1692                       5.85263e-05
x1.vss.n1691                       5.84722e-05
x1.vss.n1690                       5.84614e-05
x1.vss.n1689                       5.85051e-05
x1.vss.n1688                       5.84858e-05
x1.vss.n1687                       5.84516e-05
x1.vss.n1686                       5.84426e-05
x1.vss.n1685                       5.84681e-05
x1.vss.n1684                       5.84514e-05
x1.vss.n1683                       5.84341e-05
x1.vss.n1682                       5.84261e-05
x1.vss.n1681                       5.84355e-05
x1.vss.n1680                         5.842e-05
x1.vss.n1679                       5.84182e-05
x1.vss.n1678                       5.84103e-05
x1.vss.n1677                       5.84046e-05
x1.vss.n1676                       5.83889e-05
x1.vss.n1675                       5.84024e-05
x1.vss.n1674                       5.83941e-05
x1.vss.n1673                       5.83727e-05
x1.vss.n1672                       5.83555e-05
x1.vss.n1671                       5.83854e-05
x1.vss.n1670                        5.8376e-05
x1.vss.n1669                       5.83369e-05
x1.vss.n1668                       5.83167e-05
x1.vss.n1667                       5.83657e-05
x1.vss.n1666                       5.83544e-05
x1.vss.n1665                       5.82944e-05
x1.vss.n1664                       5.82694e-05
x1.vss.n1661                       5.82131e-05
x1.vss.n1660                       5.81806e-05
x1.vss.n1659                       5.82965e-05
x1.vss.n1658                       5.82774e-05
x1.vss.n1657                        5.8143e-05
x1.vss.n1656                       5.80995e-05
x1.vss.n1655                       5.82553e-05
x1.vss.n1654                       5.82298e-05
x1.vss.n1653                       5.80492e-05
x1.vss.n1652                        5.7991e-05
x1.vss.n1651                       5.82002e-05
x1.vss.n1650                       5.81659e-05
x1.vss.n1649                       5.79237e-05
x1.vss.n1648                       5.78457e-05
x1.vss.n1647                        5.8126e-05
x1.vss.n1646                       5.80794e-05
x1.vss.n1645                       5.77555e-05
x1.vss.n1644                       5.76511e-05
x1.vss.n1643                        5.8024e-05
x1.vss.n1642                       5.79556e-05
x1.vss.n1641                       5.75304e-05
x1.vss.n1640                       5.73911e-05
x1.vss.n129                        5.69276e-05
x1.vss.n1718                       5.80476e-05
x1.vss.n2381                       5.72249e-05
x1.vss.n2380                       5.67453e-05
x1.vss.n2379                        5.6542e-05
x1.vss.n128                         5.6976e-05
x1.vss.n2378                       5.63197e-05
x1.vss.n2377                       5.67064e-05
x1.vss.n131                        5.64223e-05
x1.vss.n130                        5.60805e-05
x1.vss.n2373                       5.61265e-05
x1.vss.n2372                       5.58263e-05
x1.vss.n2371                        5.5559e-05
x1.vss.n136                        5.58209e-05
x1.vss.n2370                       5.52803e-05
x1.vss.n2369                       5.55071e-05
x1.vss.n138                        5.51861e-05
x1.vss.n137                        5.49916e-05
x1.vss.n2365                       5.48589e-05
x1.vss.n2364                       5.46944e-05
x1.vss.n2363                       5.43899e-05
x1.vss.n142                        5.45263e-05
x1.vss.n2362                       5.40796e-05
x1.vss.n2361                        5.4189e-05
x1.vss.n144                        5.38472e-05
x1.vss.n143                        5.37644e-05
x1.vss.n2357                       5.35015e-05
x1.vss.n2356                       5.34456e-05
x1.vss.n2355                       5.31244e-05
x1.vss.n149                         5.3152e-05
x1.vss.n2354                       5.28019e-05
x1.vss.n2353                       5.27988e-05
x1.vss.n151                        5.24418e-05
x1.vss.n150                        5.24796e-05
x1.vss.n2349                       5.20807e-05
x1.vss.n2348                        5.2159e-05
x1.vss.n2347                       5.18418e-05
x1.vss.n156                        5.17153e-05
x1.vss.n2346                       5.15301e-05
x1.vss.n2345                       5.13451e-05
x1.vss.n158                        5.09699e-05
x1.vss.n157                        5.12265e-05
x1.vss.n2341                       5.05907e-05
x1.vss.n2340                       5.09341e-05
x1.vss.n2339                       5.06568e-05
x1.vss.n163                        5.02126e-05
x1.vss.n2338                       5.03989e-05
x1.vss.n1785                        5.9442e-05
x1.vss.n1617                       5.90521e-05
x1.vss.n1616                       5.87246e-05
x1.vss.n1784                       5.94467e-05
x1.vss.n1783                       5.90402e-05
x1.vss.n1782                       5.86789e-05
x1.vss.n1779                       5.90056e-05
x1.vss.n1778                        5.9442e-05
x1.vss.n1780                       5.84701e-05
x1.vss.n1777                       5.94352e-05
x1.vss.n1720                       5.89702e-05
x1.vss.n1719                       5.82068e-05
x1.vss.n1776                       5.94301e-05
x1.vss.n1775                       5.89517e-05
x1.vss.n125                        5.79264e-05
x1.vss.n1536                       5.87841e-05
x1.vss.n1531                       5.87008e-05
x1.vss.n1877                       5.87639e-05
x1.vss.n1538                       5.87924e-05
x1.vss.n1876                       5.87358e-05
x1.vss.n1721                        5.8802e-05
x1.vss.n1537                       5.87817e-05
x1.vss.n1539                       5.87633e-05
x1.vss.n1722                       5.88124e-05
x1.vss.n1543                       5.87983e-05
x1.vss.n1870                        5.8786e-05
x1.vss.n1723                       5.88235e-05
x1.vss.n1544                       5.88138e-05
x1.vss.n1869                       5.88054e-05
x1.vss.n1724                        5.8835e-05
x1.vss.n1545                       5.88283e-05
x1.vss.n1868                       5.88226e-05
x1.vss.n1726                       5.88467e-05
x1.vss.n1725                       5.88422e-05
x1.vss.n1546                       5.88383e-05
x1.vss.n1727                       5.88587e-05
x1.vss.n1550                       5.88556e-05
x1.vss.n1862                       5.88529e-05
x1.vss.n1728                       5.88708e-05
x1.vss.n1551                       5.88687e-05
x1.vss.n1861                       5.88669e-05
x1.vss.n1729                        5.8883e-05
x1.vss.n1552                       5.88816e-05
x1.vss.n1860                       5.88803e-05
x1.vss.n1731                       5.88953e-05
x1.vss.n1730                       5.88943e-05
x1.vss.n1553                       5.88935e-05
x1.vss.n1732                       5.89076e-05
x1.vss.n1557                       5.89069e-05
x1.vss.n1854                       5.89064e-05
x1.vss.n1733                         5.892e-05
x1.vss.n1558                       5.89195e-05
x1.vss.n1853                       5.89191e-05
x1.vss.n1734                       5.89323e-05
x1.vss.n1559                        5.8932e-05
x1.vss.n1852                       5.89318e-05
x1.vss.n1736                       5.89447e-05
x1.vss.n1735                       5.89445e-05
x1.vss.n1560                       5.89443e-05
x1.vss.n1737                       5.89571e-05
x1.vss.n1564                        5.8957e-05
x1.vss.n1846                       5.89569e-05
x1.vss.n1738                       5.89695e-05
x1.vss.n1565                       5.89694e-05
x1.vss.n1845                       5.89694e-05
x1.vss.n1739                       5.89819e-05
x1.vss.n1566                       5.89818e-05
x1.vss.n1844                       5.89818e-05
x1.vss.n1741                       5.89943e-05
x1.vss.n1740                       5.89943e-05
x1.vss.n1567                       5.89943e-05
x1.vss.n1742                       5.90066e-05
x1.vss.n1571                       5.90067e-05
x1.vss.n1838                       5.90067e-05
x1.vss.n1743                        5.9019e-05
x1.vss.n1572                       5.90191e-05
x1.vss.n1837                       5.90191e-05
x1.vss.n1744                       5.90314e-05
x1.vss.n1573                       5.90315e-05
x1.vss.n1836                       5.90315e-05
x1.vss.n1746                       5.90438e-05
x1.vss.n1745                       5.90439e-05
x1.vss.n1574                        5.9044e-05
x1.vss.n1747                       5.90562e-05
x1.vss.n1578                       5.90563e-05
x1.vss.n1830                       5.90564e-05
x1.vss.n1748                       5.90686e-05
x1.vss.n1579                       5.90687e-05
x1.vss.n1829                       5.90687e-05
x1.vss.n1749                        5.9081e-05
x1.vss.n1580                        5.9081e-05
x1.vss.n1828                       5.90811e-05
x1.vss.n1751                       5.90933e-05
x1.vss.n1750                       5.90934e-05
x1.vss.n1581                       5.90935e-05
x1.vss.n1752                       5.91057e-05
x1.vss.n1585                       5.91057e-05
x1.vss.n1822                       5.91058e-05
x1.vss.n1753                       5.91181e-05
x1.vss.n1586                       5.91181e-05
x1.vss.n1821                       5.91181e-05
x1.vss.n1754                       5.91305e-05
x1.vss.n1587                       5.91303e-05
x1.vss.n1820                       5.91303e-05
x1.vss.n1756                       5.91428e-05
x1.vss.n1755                       5.91426e-05
x1.vss.n1588                       5.91424e-05
x1.vss.n1757                       5.91552e-05
[...]
x1.a_3868_4185.n12                  1.2197e-05
x1.a_3868_4185.n11                 1.21965e-05
x1.a_3868_4185.n29                 1.21958e-05
x1.a_3868_4185.n32                  1.2197e-05
x1.a_3868_4185.n31                 1.21977e-05
x1.a_3868_4185.n34                  1.2197e-05
x1.a_3868_4185.n33                 1.21958e-05
x1.a_3868_4185.n36                  1.2197e-05
x1.a_3868_4185.n35                 1.21977e-05
x1.a_3868_4185.n38                  1.2197e-05
x1.a_3868_4185.n37                 1.21958e-05
x1.a_3868_4185.n40                  1.2197e-05
x1.a_3868_4185.n39                 1.21978e-05
x1.a_3868_4185.n42                  1.2197e-05
x1.a_3868_4185.n41                 1.21978e-05
x1.a_3868_4185.n14                 1.21965e-05
x1.a_3868_4185.n17                  1.2197e-05
x1.a_3868_4185.n16                 1.21965e-05
x1.a_3868_4185.n19                  1.2197e-05
x1.a_3868_4185.n18                 1.21965e-05
x1.a_3868_4185.n21                  1.2197e-05
x1.a_3868_4185.n20                 1.21965e-05
x1.a_3868_4185.n23                  1.2197e-05
x1.a_3868_4185.n22                 1.21965e-05
x1.a_3868_4185.n25                  1.2197e-05
x1.a_3868_4185.n24                 1.21965e-05
x1.a_3868_4185.n27                  1.2197e-05
x1.a_3868_4185.n26                 1.21985e-05
x1.a_3868_4185.n45                 1.21965e-05
x1.a_3868_4185.n48                  1.2197e-05
x1.a_3868_4185.n47                 1.21965e-05
x1.a_3868_4185.n50                  1.2197e-05
x1.a_3868_4185.n49                 1.21965e-05
x1.a_3868_4185.n52                  1.2197e-05
x1.a_3868_4185.n51                 1.21965e-05
x1.a_3868_4185.n54                  1.2197e-05
x1.a_3868_4185.n53                 1.21965e-05
x1.a_3868_4185.n56                  1.2197e-05
x1.a_3868_4185.n55                 1.21965e-05
x1.a_3868_4185.n58                  1.2197e-05
x1.a_3868_4185.n57                 1.21985e-05
x1.a_3868_4185.n60                 1.21978e-05
x1.a_3868_4185.n63                 1.21971e-05
x1.a_3868_4185.n62                 1.21958e-05
x1.a_3868_4185.n65                  1.2197e-05
x1.a_3868_4185.n64                 1.21978e-05
x1.a_3868_4185.n67                  1.2197e-05
x1.a_3868_4185.n66                 1.21958e-05
x1.a_3868_4185.n69                  1.2197e-05
x1.a_3868_4185.n68                 1.21978e-05
x1.a_3868_4185.n71                  1.2197e-05
x1.a_3868_4185.n70                 1.21958e-05
x1.a_3868_4185.n73                  1.2197e-05
x1.a_3868_4185.n72                 1.21978e-05
x1.a_3868_4185.n77                 1.21985e-05
x1.a_3868_4185.n76                  1.2197e-05
x1.a_3868_4185.n43                  1.2197e-05
x1.a_3868_4185.n74                  1.2197e-05
x1.a_3868_4185.n75                  1.2197e-05
x1.vout.n15                        1.38875e-05
x1.vout.n13                        1.39077e-05
x1.vout.n2                         1.38885e-05
x1.vout.n0                         1.39087e-05
x1.vout.n1                         1.39086e-05
x1.vout.n4                         1.38883e-05
x1.vout.n3                         1.39084e-05
x1.vout.n6                         1.38879e-05
x1.vout.n5                          1.3908e-05
x1.vout.n8                         1.38874e-05
x1.vout.n7                         1.39075e-05
x1.vout.n10                        1.38869e-05
x1.vout.n9                         1.39069e-05
x1.vout.n12                        1.38861e-05
x1.vout.n11                        1.39062e-05
x1.vout.n14                        1.39076e-05
x1.vout.n17                        1.38873e-05
x1.vout.n16                        1.39074e-05
x1.vout.n19                        1.38869e-05
x1.vout.n18                         1.3907e-05
x1.vout.n21                        1.38865e-05
x1.vout.n20                        1.39066e-05
x1.vout.n23                        1.38859e-05
x1.vout.n22                         1.3906e-05
x1.vout.n25                        1.38852e-05
x1.vout.n24                        1.39053e-05
x1.vout.n68                        1.38347e-05
x1.vout.n66                        1.38312e-05
x1.vout.n63                        1.38348e-05
x1.vout.n61                        1.38313e-05
x1.vout.n58                        1.38349e-05
x1.vout.n56                        1.38314e-05
x1.vout.n53                        1.38351e-05
x1.vout.n51                        1.38316e-05
x1.vout.n48                        1.38352e-05
x1.vout.n46                        1.38317e-05
x1.vout.n43                        1.38355e-05
x1.vout.n41                         1.3832e-05
x1.vout.n38                        1.38357e-05
x1.vout.n36                        1.38322e-05
x1.vout.n33                        1.38361e-05
x1.vout.n31                        1.38325e-05
x1.vout.n73                        1.38347e-05
x1.vout.n71                        1.38312e-05
x1.vout.n28                        1.38364e-05
x1.vout.n26                        1.38329e-05
x1.vout.n75                        1.38347e-05
x1.vout.n74                        1.38312e-05
x1.vout.n72                        1.38312e-05
x1.vout.n70                        1.38348e-05
x1.vout.n69                        1.38313e-05
x1.vout.n67                        1.38312e-05
x1.vout.n65                        1.38349e-05
x1.vout.n64                        1.38314e-05
x1.vout.n62                        1.38314e-05
x1.vout.n60                         1.3835e-05
x1.vout.n59                        1.38315e-05
x1.vout.n57                        1.38314e-05
x1.vout.n55                        1.38352e-05
x1.vout.n54                        1.38317e-05
x1.vout.n52                        1.38316e-05
x1.vout.n50                        1.38353e-05
x1.vout.n49                        1.38318e-05
x1.vout.n47                        1.38318e-05
x1.vout.n45                        1.38356e-05
x1.vout.n44                        1.38321e-05
x1.vout.n42                         1.3832e-05
x1.vout.n40                        1.38358e-05
x1.vout.n39                        1.38323e-05
x1.vout.n37                        1.38322e-05
x1.vout.n35                        1.38361e-05
x1.vout.n34                        1.38326e-05
x1.vout.n32                        1.38326e-05
x1.vout.n30                        1.38364e-05
x1.vout.n29                        1.38329e-05
x1.vout.n27                        1.38329e-05
x1.vout.n86                        1.38842e-05
x1.vout.n85                        1.38599e-05
x1.vout.n84                        1.38365e-05
x1.vout.n87                        1.38852e-05
x1.vout.n76                        1.38349e-05
x1.vout.n78                        1.38351e-05
x1.vout.n80                        1.38354e-05
x1.vout.n82                        1.38359e-05
x1.vout.n77                         1.3835e-05
x1.vout.n79                        1.38352e-05
x1.vout.n81                        1.38357e-05
x1.vout.n83                        1.38362e-05
x1.a_n1962_4406.n21                1.23048e-05
x1.a_n1962_4406.n19                1.23064e-05
x1.a_n1962_4406.n115               1.23047e-05
x1.a_n1962_4406.n113               1.23063e-05
x1.a_n1962_4406.n2                 1.23048e-05
x1.a_n1962_4406.n0                 1.23081e-05
x1.a_n1962_4406.n8                 1.23049e-05
x1.a_n1962_4406.n6                 1.23081e-05
x1.a_n1962_4406.n58                1.23049e-05
x1.a_n1962_4406.n56                1.23081e-05
x1.a_n1962_4406.n25                1.23046e-05
x1.a_n1962_4406.n23                1.23063e-05
x1.a_n1962_4406.n39                1.23047e-05
x1.a_n1962_4406.n37                1.23063e-05
x1.a_n1962_4406.n5                 1.23048e-05
x1.a_n1962_4406.n3                 1.23081e-05
x1.a_n1962_4406.n98                1.23047e-05
x1.a_n1962_4406.n96                1.23063e-05
x1.a_n1962_4406.n79                1.23047e-05
x1.a_n1962_4406.n77                1.23064e-05
x1.a_n1962_4406.n83                1.23047e-05
x1.a_n1962_4406.n81                1.23063e-05
x1.a_n1962_4406.n48                1.23047e-05
x1.a_n1962_4406.n36                1.23063e-05
x1.a_n1962_4406.n52                1.23047e-05
x1.a_n1962_4406.n22                1.23063e-05
x1.a_n1962_4406.n92                1.23047e-05
x1.a_n1962_4406.n80                1.23063e-05
x1.a_n1962_4406.n110               1.23047e-05
x1.a_n1962_4406.n109               1.23042e-05
x1.a_n1962_4406.n112               1.23047e-05
x1.a_n1962_4406.n111               1.23041e-05
x1.a_n1962_4406.n119               1.23047e-05
x1.a_n1962_4406.n118               1.23041e-05
x1.a_n1962_4406.n117               1.23047e-05
x1.a_n1962_4406.n116                1.2304e-05
x1.a_n1962_4406.n114                1.2304e-05
x1.a_n1962_4406.n76                1.23048e-05
x1.a_n1962_4406.n75                1.23042e-05
x1.a_n1962_4406.n1                 1.23043e-05
x1.a_n1962_4406.n72                1.23048e-05
x1.a_n1962_4406.n71                1.23042e-05
x1.a_n1962_4406.n18                1.23048e-05
x1.a_n1962_4406.n17                1.23042e-05
x1.a_n1962_4406.n16                1.23048e-05
x1.a_n1962_4406.n15                1.23042e-05
x1.a_n1962_4406.n14                1.23048e-05
x1.a_n1962_4406.n13                1.23042e-05
x1.a_n1962_4406.n12                1.23048e-05
x1.a_n1962_4406.n11                1.23042e-05
x1.a_n1962_4406.n10                1.23048e-05
x1.a_n1962_4406.n9                 1.23042e-05
x1.a_n1962_4406.n7                 1.23042e-05
x1.a_n1962_4406.n68                1.23047e-05
x1.a_n1962_4406.n67                1.23042e-05
x1.a_n1962_4406.n66                1.23047e-05
x1.a_n1962_4406.n65                1.23042e-05
x1.a_n1962_4406.n64                1.23048e-05
x1.a_n1962_4406.n63                1.23042e-05
x1.a_n1962_4406.n62                1.23048e-05
x1.a_n1962_4406.n61                1.23042e-05
x1.a_n1962_4406.n60                1.23048e-05
x1.a_n1962_4406.n59                1.23042e-05
x1.a_n1962_4406.n57                1.23042e-05
x1.a_n1962_4406.n55                1.23047e-05
x1.a_n1962_4406.n54                1.23042e-05
x1.a_n1962_4406.n20                1.23042e-05
x1.a_n1962_4406.n51                1.23047e-05
x1.a_n1962_4406.n50                1.23042e-05
x1.a_n1962_4406.n35                1.23047e-05
x1.a_n1962_4406.n34                1.23041e-05
x1.a_n1962_4406.n33                1.23046e-05
x1.a_n1962_4406.n32                1.23041e-05
x1.a_n1962_4406.n31                1.23046e-05
x1.a_n1962_4406.n30                 1.2304e-05
x1.a_n1962_4406.n29                1.23046e-05
x1.a_n1962_4406.n28                 1.2304e-05
x1.a_n1962_4406.n27                1.23046e-05
x1.a_n1962_4406.n26                 1.2304e-05
x1.a_n1962_4406.n24                 1.2304e-05
x1.a_n1962_4406.n47                1.23047e-05
x1.a_n1962_4406.n46                1.23025e-05
x1.a_n1962_4406.n45                1.23047e-05
x1.a_n1962_4406.n44                1.23063e-05
x1.a_n1962_4406.n43                1.23047e-05
x1.a_n1962_4406.n42                1.23025e-05
x1.a_n1962_4406.n41                1.23047e-05
x1.a_n1962_4406.n40                1.23063e-05
x1.a_n1962_4406.n38                1.23024e-05
x1.a_n1962_4406.n4                 1.23043e-05
x1.a_n1962_4406.n106               1.23047e-05
x1.a_n1962_4406.n105               1.23041e-05
x1.a_n1962_4406.n104               1.23047e-05
x1.a_n1962_4406.n103               1.23041e-05
x1.a_n1962_4406.n102               1.23047e-05
x1.a_n1962_4406.n101               1.23041e-05
x1.a_n1962_4406.n100               1.23047e-05
x1.a_n1962_4406.n99                1.23041e-05
x1.a_n1962_4406.n97                1.23041e-05
x1.a_n1962_4406.n95                1.23047e-05
x1.a_n1962_4406.n94                1.23042e-05
x1.a_n1962_4406.n78                1.23042e-05
x1.a_n1962_4406.n91                1.23047e-05
x1.a_n1962_4406.n90                1.23026e-05
x1.a_n1962_4406.n89                1.23047e-05
x1.a_n1962_4406.n88                1.23063e-05
x1.a_n1962_4406.n87                1.23047e-05
x1.a_n1962_4406.n86                1.23025e-05
x1.a_n1962_4406.n85                1.23047e-05
x1.a_n1962_4406.n84                1.23063e-05
x1.a_n1962_4406.n82                1.23025e-05
x1.a_n1962_4406.n121               1.23041e-05
x1.a_n1962_4406.n120               1.23047e-05
x1.a_n1962_4406.n49                1.23047e-05
x1.a_n1962_4406.n53                1.23047e-05
x1.a_n1962_4406.n70                1.23048e-05
x1.a_n1962_4406.n69                1.23047e-05
x1.a_n1962_4406.n74                1.23048e-05
x1.a_n1962_4406.n73                1.23048e-05
x1.a_n1962_4406.n93                1.23047e-05
x1.a_n1962_4406.n108               1.23047e-05
x1.a_n1962_4406.n107               1.23047e-05
x1.vp.n0                                     0
x1.vp.n1                                     0
x1.vp.n3                                     0
x1.vp.n7                                     0
x1.vp.n9                                     0
x1.vp.n13                                    0
x1.vp.n4                                     0
x1.vp.n5                                     0
x1.vp.n10                                    0
x1.vp.n11                                    0
x1.vp.n14                                    0
x1.vp.n2                                     0
x1.vp.n8                                     0
x1.vp.n6                                     0
x1.vp.n12                                    0
x1.a_n735_8972.n50                     1.50981
x1.a_n735_8972.n49                     1.50981
x1.a_n735_8972.n52                     1.50981
x1.a_n735_8972.n51                     1.50981
x1.a_n735_8972.n47                     1.50981
x1.a_n735_8972.n0                      1.50981
x1.a_n735_8972.n48                     1.50981
x1.a_n735_8972.n36                     1.50981
x1.a_n735_8972.n33                     1.50981
x1.a_n735_8972.n30                     1.50981
x1.a_n735_8972.n27                     1.50981
x1.a_n735_8972.n24                     1.50981
x1.a_n735_8972.n21                     1.50981
x1.a_n735_8972.n18                     1.50981
x1.a_n735_8972.n37                     1.50981
x1.a_n735_8972.n38                     1.50981
x1.a_n735_8972.n34                     1.50981
x1.a_n735_8972.n35                     1.50981
x1.a_n735_8972.n31                     1.50981
x1.a_n735_8972.n32                     1.50981
x1.a_n735_8972.n28                     1.50981
x1.a_n735_8972.n29                     1.50981
x1.a_n735_8972.n25                     1.50981
x1.a_n735_8972.n26                     1.50981
x1.a_n735_8972.n22                     1.50981
x1.a_n735_8972.n23                     1.50981
x1.a_n735_8972.n19                     1.50981
x1.a_n735_8972.n20                     1.50981
x1.a_n735_8972.n5                      1.50981
x1.a_n735_8972.n4                      1.50981
x1.a_n735_8972.n11                     1.50981
x1.a_n735_8972.n10                     1.50981
x1.a_n735_8972.n17                     1.50981
x1.a_n735_8972.n16                     1.50981
x1.a_n735_8972.n3                      1.50981
x1.a_n735_8972.n1                      1.50981
x1.a_n735_8972.n8                      1.50981
x1.a_n735_8972.n6                      1.50981
x1.a_n735_8972.n14                     1.50981
x1.a_n735_8972.n12                     1.50981
x1.a_n735_8972.n13                     1.50981
x1.a_n735_8972.n2                      1.50981
x1.a_n735_8972.n7                      1.50981
x1.a_n735_8972.n45                     1.50981
x1.a_n735_8972.n46                     1.50981
x1.a_n735_8972.n44                     1.50981
x1.a_n735_8972.n39                     1.50981
x1.a_n735_8972.n40                     1.50981
x1.a_n735_8972.n41                     1.50981
x1.a_n735_8972.n42                     1.50981
x1.a_n735_8972.n43                     1.50981
x1.a_n735_8972.n9                      1.50981
x1.a_n735_8972.n15                     1.50981
x1.vn.n0                           1.38852e-05
x1.vn.n1                           1.38852e-05
x1.vn.n3                           1.38852e-05
x1.vn.n7                           1.38852e-05
x1.vn.n9                           1.38852e-05
x1.vn.n13                          1.38852e-05
x1.vn.n5                           1.38852e-05
x1.vn.n4                           1.38852e-05
x1.vn.n11                          1.38852e-05
x1.vn.n10                          1.38852e-05
x1.vn.n14                          1.38852e-05
x1.vn.n2                           1.38852e-05
x1.vn.n8                           1.38852e-05
x1.vn.n6                           1.38852e-05
x1.vn.n12                          1.38852e-05
x1.a_n935_8875.n41                     1.50889
x1.a_n935_8875.n35                     1.50889
x1.a_n935_8875.n6                      1.50889
x1.a_n935_8875.n4                      1.50889
x1.a_n935_8875.n19                     1.50889
x1.a_n935_8875.n13                     1.50889
x1.a_n935_8875.n27                     1.50889
x1.a_n935_8875.n25                     1.50889
x1.a_n935_8875.n15                     1.50889
x1.a_n935_8875.n37                     1.50889
x1.a_n935_8875.n11                     1.50889
x1.a_n935_8875.n10                     1.50889
x1.a_n935_8875.n32                     1.50889
x1.a_n935_8875.n31                     1.50889
x1.a_n935_8875.n5                      1.50889
x1.a_n935_8875.n26                     1.50889
x1.a_n935_8875.n8                      1.50889
x1.a_n935_8875.n21                     1.50889
x1.a_n935_8875.n14                     1.50889
x1.a_n935_8875.n29                     1.50889
x1.a_n935_8875.n43                     1.50889
x1.a_n935_8875.n36                     1.50889
x1.a_n935_8875.n55                     1.50889
x1.a_n935_8875.n54                     1.50889
x1.a_n935_8875.n59                     1.50889
x1.a_n935_8875.n58                     1.50889
x1.a_n935_8875.n56                     1.50889
x1.a_n935_8875.n50                     1.50889
x1.a_n935_8875.n53                     1.50889
x1.a_n935_8875.n51                     1.50889
x1.a_n935_8875.n49                     1.50889
x1.a_n935_8875.n47                     1.50889
x1.a_n935_8875.n2                      1.50889
x1.a_n935_8875.n0                      1.50889
x1.a_n935_8875.n52                     1.50889
x1.a_n935_8875.n48                     1.50889
x1.a_n935_8875.n1                      1.50889
x1.a_n935_8875.n46                     1.50889
x1.a_n935_8875.n45                     1.50889
x1.a_n935_8875.n9                      1.50889
x1.a_n935_8875.n22                     1.50889
x1.a_n935_8875.n16                     1.50889
x1.a_n935_8875.n30                     1.50889
x1.a_n935_8875.n44                     1.50889
x1.a_n935_8875.n38                     1.50889
x1.a_n935_8875.n7                      1.50889
x1.a_n935_8875.n3                      1.50889
x1.a_n935_8875.n18                     1.50889
x1.a_n935_8875.n17                     1.50889
x1.a_n935_8875.n20                     1.50889
x1.a_n935_8875.n12                     1.50889
x1.a_n935_8875.n28                     1.50889
x1.a_n935_8875.n24                     1.50889
x1.a_n935_8875.n42                     1.50889
x1.a_n935_8875.n34                     1.50889
x1.a_n935_8875.n40                     1.50889
x1.a_n935_8875.n39                     1.50889
x1.a_n935_8875.n23                     1.50889
x1.a_n935_8875.n33                     1.50889
x1.a_n935_8875.n57                     1.50889
v.x1.x62.x0.vrbody_3#branch                  0
evdrv1#branch                     -1.72583e-20
v3#branch                                    0
v2#branch                         -5.00214e-06
v0#branch                          5.00214e-06

 Reference value :  0.00000e+00
 Reference value :  1.00000e-10
 Reference value :  4.00000e-10
 Reference value :  1.60000e-09
 Reference value :  6.40000e-09
 Reference value :  2.28000e-08
 Reference value :  4.28000e-08
 Reference value :  6.28000e-08
 Reference value :  8.28000e-08
 Reference value :  1.00000e-07
No. of Data Rows : 18
 meas tran sr max deriv(v(vout)) failed!

