
Note: Compatibility modes selected: hs a


Circuit: ** sch_path: /foss/designs/sky130_op_amp/runs/run_2025-10-21_19-15-32/parameters/slew_rate/run_39/transient.sch

option SCALE: Scale is set to 1e-06 for instance and model parameters
option SCALE: Scale is set to 1e-06 for instance and model parameters
option SCALE: Scale is set to 1e-06 for instance and model parameters
option SCALE: Scale is set to 1e-06 for instance and model parameters
Doing analysis at TEMP = 27.000000 and TNOM = 27.000000

Using SPARSE 1.3 as Direct Linear Solver

Initial Transient Solution
--------------------------

Node                                   Voltage
----                                   -------
vdd                                        1.7
ibias                                 0.655854
vout                               1.22353e-05
vss                                          0
vn                                 1.22353e-05
vp                                           0
x1.a_8862_4192.t27                 0.000939552
x1.en.t0                                   1.7
x1.vss.t311                        9.29174e-05
x1.vss.t215                        5.47292e-05
x1.vdd.t97                                 1.7
x1.vdd.t96                                 1.7
x1.vdd.t44                                 1.7
x1.vdd.t95                                 1.7
x1.vdd.t93                                 1.7
x1.vdd.t94                                 1.7
x1.vdd.t47                                 1.7
x1.a_3868_4185.t39                 1.20884e-05
x1.ibias.t10                          0.655833
x1.a_3329_8823.t39                 1.20909e-05
x1.vss.t0                          1.41411e-05
x1.a_n1962_4406.t59                1.21227e-05
x1.ibias.t11                          0.655833
x1.vout.t21                        1.22307e-05
x1.vss.t6                          1.22058e-05
x1.a_n1962_4406.t58                1.21226e-05
x1.ibias.t12                          0.655833
x1.vout.t53                        1.22307e-05
x1.vss.t211                        5.35351e-05
x1.vss.t209                        5.36946e-05
x1.vss.t210                        6.86362e-05
x1.vss.t30                          5.0137e-05
x1.a_3329_8823.t38                 1.20909e-05
x1.ibias.t13                          0.655833
x1.a_3868_4185.t38                 1.20884e-05
x1.vss.t1                          1.39782e-05
x1.vss.t208                        1.21945e-05
x1.vss.t207                        1.21945e-05
x1.vss.t64                         1.40471e-05
x1.vdd.t92                                 1.7
x1.vdd.t91                                 1.7
x1.vdd.t71                                 1.7
x1.a_3868_4185.t37                 1.20884e-05
x1.ibias.t14                          0.655833
x1.a_3329_8823.t8                  1.20909e-05
x1.vss.t11                         1.38174e-05
x1.a_n735_8972.t23                     1.26183
x1.vp.t0                                     0
x1.a_3329_8823.t56                 1.20909e-05
x1.vss.t2                          1.35486e-05
x1.vss.t310                        1.21139e-05
x1.en.t1                                   1.7
x1.a_n1962_4406.t123               1.21225e-05
x1.vss.t77                         1.22122e-05
x1.a_3868_4185.t36                 1.20884e-05
x1.ibias.t15                          0.655833
x1.a_3329_8823.t17                 1.20909e-05
x1.vss.t7                          1.45159e-05
x1.a_3329_8823.t66                 1.20909e-05
x1.vn.t0                           1.22353e-05
x1.a_n935_8875.t15                     1.26136
x1.vss.t4                          1.36618e-05
x1.vdd.t19                                 1.7
x1.a_n735_8972.t27                     1.26183
x1.vout.t67                        1.22373e-05
x1.vdd.t15                                 1.7
x1.a_n1962_4406.t122               1.21227e-05
x1.en.t2                                   1.7
x1.vss.t309                        1.21139e-05
x1.vss.t8                          1.22112e-05
x1.a_3329_8823.t65                 1.20909e-05
x1.vn.t1                           1.22353e-05
x1.a_n935_8875.t14                     1.26136
x1.vss.t5                          1.34438e-05
x1.vdd.t36                                 1.7
x1.a_n735_8972.t28                     1.26183
x1.vout.t77                        1.22372e-05
x1.vdd.t5                                  1.7
x1.vss.t206                        1.21945e-05
x1.vss.t205                        1.21945e-05
x1.a_3329_8823.t55                 1.20909e-05
x1.a_n1962_4406.t57                1.21231e-05
x1.ibias.t16                          0.655833
x1.vout.t45                        1.22306e-05
x1.vss.t212                        1.22075e-05
x1.a_n1962_4406.t56                1.21228e-05
x1.ibias.t17                          0.655833
x1.vout.t2                         1.22306e-05
x1.vss.t308                        1.21139e-05
x1.en.t3                                   1.7
x1.a_n1962_4406.t121               1.21227e-05
x1.vss.t19                         1.22084e-05
x1.a_3329_8823.t43                 1.20909e-05
x1.vn.t2                           1.22353e-05
x1.a_n935_8875.t13                     1.26136
x1.vdd.t90                                 1.7
x1.vdd.t89                                 1.7
x1.a_n1962_4406.t79                1.21229e-05
x1.vss.t203                        1.21038e-05
x1.vss.t204                        1.21038e-05
x1.vss.t20                         1.22093e-05
x1.a_n1962_4406.t120               1.21227e-05
x1.en.t4                                   1.7
x1.vss.t307                        1.21155e-05
x1.vout.t38                        1.22307e-05
x1.ibias.t18                          0.655833
x1.a_n1962_4406.t55                1.21227e-05
x1.vss.t12                         1.22103e-05
x1.vss.t202                        1.21038e-05
x1.vss.t201                        1.21038e-05
x1.a_n1962_4406.t78                1.21226e-05
x1.vss.t56                         1.22143e-05
x1.vdd.t88                                 1.7
x1.vdd.t87                                 1.7
x1.a_n935_8875.t12                     1.26136
x1.vn.t3                           1.22353e-05
x1.a_3329_8823.t62                 1.20909e-05
x1.vss.t84                         1.32972e-05
x1.vout.t46                        1.22306e-05
x1.ibias.t19                          0.655833
x1.a_n1962_4406.t54                1.21231e-05
x1.vss.t9                          1.22066e-05
x1.vdd.t86                                 1.7
x1.vdd.t84                                 1.7
x1.vdd.t85                                 1.7
x1.a_3329_8823.t63                 1.20909e-05
x1.vp.t1                                     0
x1.a_n735_8972.t22                     1.26183
x1.vss.t89                         1.39014e-05
x1.vss.t306                        1.21155e-05
x1.en.t5                                   1.7
x1.a_n1962_4406.t119               1.21227e-05
x1.vdd.t17                                 1.7
x1.a_n735_8972.t29                     1.26183
x1.vout.t65                        1.22375e-05
x1.vdd.t16                                 1.7
x1.a_n735_8972.t30                     1.26183
x1.vout.t64                        1.22375e-05
x1.vss.t198                        1.21038e-05
x1.vss.t197                        1.21038e-05
x1.a_n1962_4406.t53                1.21229e-05
x1.ibias.t20                          0.655833
x1.vout.t42                        1.22306e-05
x1.vss.t45                         1.22072e-05
x1.vout.t35                        1.22306e-05
x1.ibias.t21                          0.655833
x1.a_n1962_4406.t52                1.21228e-05
x1.vss.t16                          1.2205e-05
x1.vss.t200                         1.2083e-05
x1.vss.t199                         1.2083e-05
x1.a_3868_4185.t55                 1.20884e-05
x1.vss.t27                         1.57052e-05
x1.vss.t196                         1.2083e-05
x1.vss.t195                         1.2083e-05
x1.a_3868_4185.t54                 1.20884e-05
x1.a_n1962_4406.t77                1.21229e-05
x1.vss.t193                        1.21038e-05
x1.vss.t194                        1.21038e-05
x1.vss.t38                         1.22133e-05
x1.a_3329_8823.t42                 1.20909e-05
x1.vn.t4                           1.22353e-05
x1.a_n935_8875.t11                     1.26136
x1.a_n1962_4406.t118               1.21227e-05
x1.en.t6                                   1.7
x1.vss.t305                        1.21139e-05
x1.vss.t15                         1.22046e-05
x1.a_n1962_4406.t117               1.21226e-05
x1.en.t7                                   1.7
x1.vss.t304                        1.21107e-05
x1.vss.t192                        7.03919e-05
x1.vss.t191                        6.30145e-05
x1.vss.t22                         5.73611e-05
x1.a_n735_8972.t21                     1.26183
x1.vp.t2                                     0
x1.a_3329_8823.t73                 1.20909e-05
x1.vss.t313                        1.39639e-05
x1.a_n1962_4406.t51                1.21227e-05
x1.ibias.t22                          0.655833
x1.vout.t9                         1.22307e-05
x1.a_n1962_4406.t116               1.21226e-05
x1.en.t8                                   1.7
x1.vss.t303                        1.21074e-05
x1.a_3329_8823.t35                 1.20909e-05
x1.ibias.t23                          0.655833
x1.a_3868_4185.t35                 1.20884e-05
x1.vss.t14                         1.36548e-05
x1.ibias.t7                            0.65562
x1.ibias.t6                           0.655822
x1.a_8862_4192.t0                    0.0011697
x1.vss.t214                        5.33247e-05
x1.vss.t302                        0.000103561
x1.en.t9                                   1.7
x1.a_8862_4192.t26                 0.000938924
x1.a_n935_8875.t33                     1.26136
x1.a_n935_8875.t32                     1.26136
x1.vdd.t110                                1.7
x1.vdd.t8                                  1.7
x1.a_n1962_4406.t50                1.21226e-05
x1.ibias.t24                          0.655833
x1.vout.t3                         1.22307e-05
x1.vss.t190                        1.21038e-05
x1.vss.t188                        1.21038e-05
x1.vss.t189                        1.21038e-05
x1.vout.t0                         1.22307e-05
x1.ibias.t25                          0.655833
x1.a_n1962_4406.t49                1.21227e-05
x1.vout.t6                         1.22307e-05
x1.ibias.t26                          0.655833
x1.a_n1962_4406.t48                1.21226e-05
x1.a_3868_4185.t53                 1.20884e-05
x1.vss.t186                         1.2083e-05
x1.vss.t187                         1.2083e-05
x1.vss.t51                         1.34847e-05
x1.a_8862_4192.t25                 0.000938812
x1.en.t10                                  1.7
x1.vss.t301                        7.71206e-05
x1.vss.t219                        5.18339e-05
x1.vss.t185                        5.90594e-05
x1.vss.t183                        5.91457e-05
x1.vss.t184                        7.40427e-05
x1.vdd.t7                                  1.7
x1.a_n735_8972.t31                     1.26183
x1.vout.t62                        1.22373e-05
x1.a_n735_8972.t7                      1.26183
x1.x62.x0.t1                           1.26183
x1.x62.x0.t2                           1.26183
x1.a_9909_7861.t0                      1.26183
x1.vss.t218                        5.90448e-05
x1.x62.x0.rbody_3                            0
x1.a_3868_4185.t34                 1.20884e-05
x1.ibias.t27                          0.655833
x1.a_3329_8823.t4                  1.20909e-05
x1.vss.t10                         1.51611e-05
x1.a_8862_4192.t3                    0.0011697
x1.ibias.t4                           0.655821
x1.ibias.t5                           0.655709
x1.vss.t300                        1.21171e-05
x1.en.t11                                  1.7
x1.a_n1962_4406.t115               1.21228e-05
x1.vss.t17                         1.22051e-05
x1.a_n1962_4406.t114               1.21225e-05
x1.en.t12                                  1.7
x1.vss.t299                         1.2109e-05
x1.vss.t182                        1.21038e-05
x1.vss.t181                        1.21038e-05
x1.a_n735_8972.t24                     1.26183
x1.a_n935_8875.t34                     1.26136
x1.vdd.t103                                1.7
x1.vdd.t30                                 1.7
x1.vss.t180                        1.21945e-05
x1.vss.t179                        1.21945e-05
x1.a_3329_8823.t54                 1.20909e-05
x1.a_3329_8823.t2                  1.20909e-05
x1.ibias.t28                          0.655833
x1.a_3868_4185.t33                 1.20884e-05
x1.vss.t13                         1.48073e-05
x1.vss.t178                        6.89287e-05
x1.vss.t177                        6.15404e-05
x1.vss.t293                        1.20881e-05
x1.en.t13                                  1.7
x1.a_3868_4185.t79                 1.20884e-05
x1.vss.t18                         1.43125e-05
x1.a_n935_8875.t10                     1.26136
x1.vn.t5                           1.22353e-05
x1.a_3329_8823.t64                 1.20909e-05
x1.vss.t298                         1.2109e-05
x1.en.t14                                  1.7
x1.a_n1962_4406.t113               1.21226e-05
x1.vss.t176                        1.21038e-05
x1.vss.t175                        1.21038e-05
x1.a_n1962_4406.t76                1.21229e-05
x1.a_3329_8823.t71                 1.20909e-05
x1.vn.t6                           1.22353e-05
x1.a_n935_8875.t9                      1.26136
x1.vdd.t83                                 1.7
x1.vdd.t82                                 1.7
x1.a_3868_4185.t78                 1.20884e-05
x1.en.t15                                  1.7
x1.vss.t297                        1.20881e-05
x1.a_3868_4185.t77                 1.20884e-05
x1.en.t16                                  1.7
x1.vss.t296                        1.20881e-05
x1.vdd.t33                                 1.7
x1.a_n735_8972.t32                     1.26183
x1.vout.t75                        1.22375e-05
x1.vss.t295                        9.15065e-05
x1.en.t17                                  1.7
x1.a_8862_4192.t24                  0.00093812
x1.a_3329_8823.t28                 1.20909e-05
x1.ibias.t29                          0.655833
x1.a_3868_4185.t32                 1.20884e-05
x1.a_3329_8823.t77                 1.20909e-05
x1.vp.t3                                     0
x1.a_n735_8972.t20                     1.26183
x1.vdd.t105                                1.7
x1.a_n735_8972.t33                     1.26183
x1.vout.t86                        1.22374e-05
x1.a_3868_4185.t31                 1.20884e-05
x1.ibias.t30                          0.655833
x1.a_3329_8823.t11                 1.20909e-05
x1.a_n1962_4406.t112               1.21227e-05
x1.en.t18                                  1.7
x1.vss.t294                        1.21123e-05
x1.a_8862_4192.t23                 0.000938039
x1.en.t19                                  1.7
x1.vss.t292                        7.23175e-05
x1.vss.t174                        5.45725e-05
x1.vss.t172                        5.45936e-05
x1.vss.t173                        6.93922e-05
x1.a_3329_8823.t12                 1.20909e-05
x1.ibias.t31                          0.655833
x1.a_3868_4185.t30                 1.20884e-05
x1.a_3868_4185.t52                 1.20884e-05
x1.vss.t170                         1.2083e-05
x1.vss.t171                         1.2083e-05
x1.vout.t49                        1.22307e-05
x1.ibias.t32                          0.655833
x1.a_n1962_4406.t47                1.21227e-05
x1.vout.t28                        1.22307e-05
x1.ibias.t33                          0.655833
x1.a_n1962_4406.t46                1.21226e-05
x1.a_n1962_4406.t45                1.21229e-05
x1.ibias.t34                          0.655833
x1.vout.t57                        1.22308e-05
x1.a_3868_4185.t76                 1.20884e-05
x1.en.t20                                  1.7
x1.vss.t291                        1.20881e-05
x1.a_3329_8823.t61                 1.20909e-05
x1.vp.t4                                     0
x1.a_n735_8972.t19                     1.26183
x1.vout.t69                        1.22375e-05
x1.a_n735_8972.t34                     1.26183
x1.vdd.t23                                 1.7
x1.vdd.t13                                 1.7
x1.vss.t130                        1.21038e-05
x1.vss.t129                        1.21038e-05
x1.a_3868_4185.t75                 1.20884e-05
x1.en.t21                                  1.7
x1.vss.t290                        1.20881e-05
x1.vss.t289                        1.20881e-05
x1.en.t22                                  1.7
x1.a_3868_4185.t74                 1.20884e-05
x1.vout.t54                        1.22306e-05
x1.ibias.t35                          0.655833
x1.a_n1962_4406.t44                1.21229e-05
x1.a_3868_4185.t29                 1.20884e-05
x1.ibias.t36                          0.655833
x1.a_3329_8823.t18                 1.20909e-05
x1.vss.t169                        1.21038e-05
x1.vss.t168                        1.21038e-05
x1.a_n1962_4406.t43                1.21228e-05
x1.ibias.t37                          0.655833
x1.vout.t52                        1.22306e-05
x1.vout.t25                        1.22306e-05
x1.ibias.t38                          0.655833
x1.a_n1962_4406.t42                1.21229e-05
x1.vss.t167                        1.21038e-05
x1.vss.t166                        1.21038e-05
x1.vout.t26                        1.22306e-05
x1.ibias.t39                          0.655833
x1.a_n1962_4406.t41                1.21228e-05
x1.vss.t165                        1.21038e-05
x1.vss.t164                        1.21038e-05
x1.a_n1962_4406.t75                1.21229e-05
x1.vss.t288                        1.21155e-05
x1.en.t23                                  1.7
x1.a_n1962_4406.t111               1.21227e-05
x1.a_n935_8875.t8                      1.26136
x1.vn.t7                           1.22353e-05
x1.a_3329_8823.t46                 1.20909e-05
x1.vss.t3                          1.37784e-05
x1.vdd.t81                                 1.7
x1.vdd.t80                                 1.7
x1.vss.t287                        1.21107e-05
x1.en.t24                                  1.7
x1.a_n1962_4406.t110               1.21225e-05
x1.vss.t286                        1.21074e-05
x1.en.t25                                  1.7
x1.a_n1962_4406.t109               1.21224e-05
x1.vdd.t106                                1.7
x1.a_n935_8875.t35                     1.26136
x1.a_n735_8972.t25                     1.26183
x1.vdd.t11                                 1.7
x1.a_n1962_4406.t40                1.21229e-05
x1.ibias.t40                          0.655833
x1.vout.t58                        1.22306e-05
x1.vss.t163                        1.21945e-05
x1.vss.t161                        1.21945e-05
x1.vss.t162                        1.42966e-05
x1.vdd.t25                                 1.7
x1.a_n735_8972.t35                     1.26183
x1.vout.t71                        1.22373e-05
x1.vss.t160                        1.21038e-05
x1.vss.t158                        1.21038e-05
x1.vss.t159                        1.21038e-05
x1.a_n1962_4406.t108               1.21226e-05
x1.en.t26                                  1.7
x1.vss.t285                        1.21107e-05
x1.a_3329_8823.t27                 1.20909e-05
x1.ibias.t41                          0.655833
x1.a_3868_4185.t28                 1.20884e-05
x1.a_n935_8875.t31                     1.26136
x1.a_n935_8875.t30                     1.26136
x1.vdd.t37                                 1.7
x1.a_n1962_4406.t39                1.21229e-05
x1.ibias.t42                          0.655833
x1.vout.t13                        1.22306e-05
x1.vout.t16                        1.22306e-05
x1.ibias.t43                          0.655833
x1.a_n1962_4406.t38                1.21228e-05
x1.a_n1962_4406.t37                1.21227e-05
x1.ibias.t44                          0.655833
x1.vout.t22                        1.22307e-05
x1.a_n1962_4406.t107               1.21225e-05
x1.en.t27                                  1.7
x1.vss.t284                        1.21074e-05
x1.a_3329_8823.t0                  1.20909e-05
x1.ibias.t45                          0.655833
x1.a_3868_4185.t27                 1.20884e-05
x1.a_n735_8972.t18                     1.26183
x1.vp.t5                                     0
x1.a_3329_8823.t47                 1.20909e-05
x1.vss.t157                        1.21945e-05
x1.vss.t155                        1.21945e-05
x1.a_n735_8972.t4                      1.26183
x1.vss.t156                        1.41264e-05
x1.vout.t73                        1.22375e-05
x1.a_n735_8972.t36                     1.26183
x1.vdd.t27                                 1.7
x1.a_n1962_4406.t36                1.21228e-05
x1.ibias.t46                          0.655833
x1.vout.t39                        1.22306e-05
x1.a_n1962_4406.t106               1.21227e-05
x1.en.t28                                  1.7
x1.vss.t280                        1.21123e-05
x1.vss.t281                        1.21107e-05
x1.en.t29                                  1.7
x1.a_n1962_4406.t105               1.21226e-05
x1.vss.t283                        1.21074e-05
x1.en.t30                                  1.7
x1.a_n1962_4406.t104               1.21225e-05
x1.vss.t282                        0.000102677
x1.en.t31                                  1.7
x1.a_8862_4192.t22                 0.000938461
x1.a_3329_8823.t53                 1.20909e-05
x1.vss.t153                        1.21945e-05
x1.vss.t154                        1.21945e-05
x1.vss.t61                         1.31207e-05
x1.vout.t14                        1.22307e-05
x1.ibias.t47                          0.655833
x1.a_n1962_4406.t35                1.21227e-05
x1.vss.t152                        1.21038e-05
x1.vss.t151                        1.21038e-05
x1.a_n1962_4406.t74                1.21225e-05
x1.vout.t17                        1.22307e-05
x1.ibias.t48                          0.655833
x1.a_n1962_4406.t34                1.21226e-05
x1.vss.t150                        1.21038e-05
x1.vss.t149                        1.21038e-05
x1.vss.t279                        1.21123e-05
x1.en.t32                                  1.7
x1.a_n1962_4406.t103               1.21227e-05
x1.a_n1962_4406.t33                1.21231e-05
x1.ibias.t49                          0.655833
x1.vout.t50                        1.22308e-05
x1.a_3868_4185.t73                 1.20884e-05
x1.en.t33                                  1.7
x1.vss.t278                        1.20881e-05
x1.vss.t274                        1.20881e-05
x1.en.t34                                  1.7
x1.a_3868_4185.t72                 1.20884e-05
x1.vss.t277                        1.20881e-05
x1.en.t35                                  1.7
x1.a_3868_4185.t71                 1.20884e-05
x1.a_n935_8875.t29                     1.26136
x1.a_n935_8875.t28                     1.26136
x1.vdd.t29                                 1.7
x1.vdd.t79                                 1.7
x1.vdd.t78                                 1.7
x1.a_n1962_4406.t32                 1.2123e-05
x1.ibias.t50                          0.655833
x1.vout.t29                        1.22308e-05
x1.a_8862_4192.t21                 0.000938355
x1.en.t36                                  1.7
x1.vss.t276                        7.77025e-05
x1.a_3868_4185.t70                 1.20884e-05
x1.en.t37                                  1.7
x1.vss.t275                        1.20881e-05
x1.vss.t148                         1.2083e-05
x1.vss.t147                         1.2083e-05
x1.a_3868_4185.t51                 1.20884e-05
x1.vdd.t22                                 1.7
x1.a_n935_8875.t26                     1.26136
x1.a_n935_8875.t27                     1.26136
x1.vdd.t0                                  1.7
x1.vout.t23                        1.22308e-05
x1.ibias.t51                          0.655833
x1.a_n1962_4406.t31                1.21231e-05
x1.vss.t273                        1.20881e-05
x1.en.t38                                  1.7
x1.a_3868_4185.t69                 1.20884e-05
x1.a_3868_4185.t50                 1.20884e-05
x1.vss.t145                         1.2083e-05
x1.vss.t146                         1.2083e-05
x1.vss.t144                        5.79297e-05
x1.vss.t142                        5.80738e-05
x1.vss.t143                        7.29548e-05
x1.a_3868_4185.t49                 1.20884e-05
x1.vss.t140                         1.2083e-05
x1.vss.t141                         1.2083e-05
x1.vss.t272                        1.20881e-05
x1.en.t39                                  1.7
x1.a_3868_4185.t68                 1.20884e-05
x1.vss.t271                        1.21139e-05
x1.en.t40                                  1.7
x1.a_n1962_4406.t102               1.21227e-05
x1.a_3868_4185.t26                 1.20884e-05
x1.ibias.t52                          0.655833
x1.a_3329_8823.t14                 1.20909e-05
x1.a_3868_4185.t25                 1.20884e-05
x1.ibias.t53                          0.655833
x1.a_3329_8823.t24                 1.20909e-05
x1.a_3329_8823.t67                 1.20909e-05
x1.vn.t8                           1.22353e-05
x1.a_n935_8875.t7                      1.26136
x1.vss.t217                         1.3803e-05
x1.a_3868_4185.t24                 1.20884e-05
x1.ibias.t54                          0.655833
x1.a_3329_8823.t34                 1.20909e-05
x1.vdd.t77                                 1.7
x1.vdd.t76                                 1.7
x1.a_n1962_4406.t73                1.21229e-05
x1.vss.t138                        1.21038e-05
x1.vss.t139                        1.21038e-05
x1.a_n1962_4406.t72                1.21229e-05
x1.vss.t136                        1.21038e-05
x1.vss.t137                        1.21038e-05
x1.ibias.t3                           0.655714
x1.ibias.t2                           0.655825
x1.a_8862_4192.t2                   0.00116972
x1.vss.t216                        5.60812e-05
x1.vss.t270                        7.58222e-05
x1.en.t41                                  1.7
x1.a_8862_4192.t20                 0.000938784
x1.a_3868_4185.t23                 1.20884e-05
x1.ibias.t55                          0.655833
x1.a_3329_8823.t5                  1.20909e-05
x1.a_3329_8823.t9                  1.20909e-05
x1.ibias.t56                          0.655833
x1.a_3868_4185.t22                 1.20884e-05
x1.a_n1962_4406.t101               1.21226e-05
x1.en.t42                                  1.7
x1.vss.t269                        1.21107e-05
x1.a_n1962_4406.t100               1.21226e-05
x1.en.t43                                  1.7
x1.vss.t268                        1.21074e-05
x1.a_3329_8823.t13                 1.20909e-05
x1.ibias.t57                          0.655833
x1.a_3868_4185.t21                 1.20884e-05
x1.vdd.t75                                 1.7
x1.vdd.t73                                 1.7
x1.vdd.t74                                 1.7
x1.vdd.t40                                 1.7
x1.vss.t267                        9.24301e-05
x1.en.t44                                  1.7
x1.a_8862_4192.t19                 0.000938609
x1.a_8862_4192.t18                 0.000938902
x1.en.t45                                  1.7
x1.vss.t266                        0.000103561
x1.vdd.t101                                1.7
x1.a_n735_8972.t37                     1.26183
x1.vout.t83                        1.22374e-05
x1.a_n1962_4406.t30                1.21228e-05
x1.ibias.t58                          0.655833
x1.vout.t55                        1.22306e-05
x1.a_8862_4192.t1                   0.00116971
x1.ibias.t0                           0.655823
x1.ibias.t1                            0.65562
x1.a_3329_8823.t1                  1.20909e-05
x1.ibias.t59                          0.655833
x1.a_3868_4185.t20                 1.20884e-05
x1.vdd.t109                                1.7
x1.a_n935_8875.t36                     1.26136
x1.a_n735_8972.t26                     1.26183
x1.a_8862_4192.t17                 0.000938527
x1.en.t46                                  1.7
x1.vss.t265                        7.30724e-05
x1.vss.t135                        5.55008e-05
x1.vss.t133                        5.53988e-05
x1.vss.t134                        7.00787e-05
x1.vout.t81                        1.22373e-05
x1.a_n735_8972.t38                     1.26183
x1.vdd.t99                                 1.7
x1.vss.t128                         1.2083e-05
x1.vss.t127                         1.2083e-05
x1.a_3868_4185.t48                 1.20884e-05
x1.a_3868_4185.t47                 1.20884e-05
x1.vss.t131                         1.2083e-05
x1.vss.t132                         1.2083e-05
x1.a_n935_8875.t25                     1.26136
x1.a_n935_8875.t24                     1.26136
x1.vdd.t31                                 1.7
x1.a_3868_4185.t19                 1.20884e-05
x1.ibias.t60                          0.655833
x1.a_3329_8823.t25                 1.20909e-05
x1.a_3329_8823.t52                 1.20909e-05
x1.vss.t125                        1.21945e-05
x1.vss.t126                        1.21945e-05
x1.vss.t248                        7.30075e-05
x1.en.t47                                  1.7
x1.a_8862_4192.t16                 0.000938054
x1.a_3329_8823.t6                  1.20909e-05
x1.ibias.t61                          0.655833
x1.a_3868_4185.t18                 1.20884e-05
x1.vdd.t72                                 1.7
x1.vdd.t70                                 1.7
x1.a_3868_4185.t67                 1.20884e-05
x1.en.t48                                  1.7
x1.vss.t264                        1.20881e-05
x1.vout.t63                        1.22375e-05
x1.a_n735_8972.t39                     1.26183
x1.vdd.t14                                 1.7
x1.vout.t68                        1.22373e-05
x1.a_n735_8972.t40                     1.26183
x1.vdd.t20                                 1.7
x1.vdd.t2                                  1.7
x1.a_n1962_4406.t99                1.21226e-05
x1.en.t49                                  1.7
x1.vss.t263                         1.2109e-05
x1.a_8862_4192.t15                 0.000938132
x1.en.t50                                  1.7
x1.vss.t262                        9.15066e-05
x1.vss.t124                        1.21945e-05
x1.vss.t123                        1.21945e-05
x1.a_3329_8823.t51                 1.20909e-05
x1.a_n1962_4406.t98                1.21225e-05
x1.en.t51                                  1.7
x1.vss.t261                        1.21058e-05
x1.vdd.t69                                 1.7
x1.vdd.t67                                 1.7
x1.vdd.t68                                 1.7
x1.a_3329_8823.t58                 1.20909e-05
x1.vp.t6                                     0
x1.a_n735_8972.t17                     1.26183
x1.vss.t122                        1.21038e-05
x1.vss.t121                        1.21038e-05
x1.a_n1962_4406.t71                1.21229e-05
x1.a_3329_8823.t79                 1.20909e-05
x1.vn.t9                           1.22353e-05
x1.a_n935_8875.t6                      1.26136
x1.vout.t40                        1.22307e-05
x1.ibias.t62                          0.655833
x1.a_n1962_4406.t29                1.21229e-05
x1.a_n935_8875.t5                      1.26136
x1.vn.t10                          1.22353e-05
x1.a_3329_8823.t70                 1.20909e-05
x1.vdd.t66                                 1.7
x1.vdd.t64                                 1.7
x1.vdd.t65                                 1.7
x1.a_n735_8972.t5                      1.26183
x1.a_n935_8875.t37                     1.26136
x1.vdd.t28                                 1.7
x1.vout.t66                        1.22374e-05
x1.a_n735_8972.t41                     1.26183
x1.vdd.t18                                 1.7
x1.vss.t120                        1.21038e-05
x1.vss.t119                        1.21038e-05
x1.a_n1962_4406.t97                1.21226e-05
x1.en.t52                                  1.7
x1.vss.t260                        1.21155e-05
x1.a_n1962_4406.t28                1.21227e-05
x1.ibias.t63                          0.655833
x1.vout.t15                        1.22307e-05
x1.vss.t118                        1.21038e-05
x1.vss.t117                        1.21038e-05
x1.vdd.t4                                  1.7
x1.a_n935_8875.t38                     1.26136
x1.a_n735_8972.t0                      1.26183
x1.a_n735_8972.t16                     1.26183
x1.vp.t7                                     0
x1.a_3329_8823.t74                 1.20909e-05
x1.a_3329_8823.t75                 1.20909e-05
x1.vp.t8                                     0
x1.a_n735_8972.t15                     1.26183
x1.a_n1962_4406.t96                1.21228e-05
x1.en.t53                                  1.7
x1.vss.t259                        1.21171e-05
x1.vdd.t63                                 1.7
x1.vdd.t61                                 1.7
x1.vdd.t62                                 1.7
x1.vss.t116                        1.21038e-05
x1.vss.t115                        1.21038e-05
x1.a_n1962_4406.t70                1.21229e-05
x1.a_n1962_4406.t27                1.21228e-05
x1.ibias.t64                          0.655833
x1.vout.t18                        1.22306e-05
x1.vss.t258                        1.21155e-05
x1.en.t54                                  1.7
x1.a_n1962_4406.t95                1.21227e-05
x1.vout.t10                        1.22307e-05
x1.ibias.t65                          0.655833
x1.a_n1962_4406.t26                1.21227e-05
x1.a_n735_8972.t14                     1.26183
x1.vp.t9                                     0
x1.a_3329_8823.t78                 1.20909e-05
x1.a_3329_8823.t59                 1.20909e-05
x1.vp.t10                                    0
x1.a_n735_8972.t13                     1.26183
x1.a_n735_8972.t12                     1.26183
x1.vp.t11                                    0
x1.a_3329_8823.t69                 1.20909e-05
x1.a_n1962_4406.t69                1.21226e-05
x1.vss.t113                        1.21038e-05
x1.vss.t114                        1.21038e-05
x1.vss.t257                        1.21123e-05
x1.en.t55                                  1.7
x1.a_n1962_4406.t94                1.21226e-05
x1.a_n1962_4406.t68                1.21229e-05
x1.vss.t111                        1.21038e-05
x1.vss.t112                        1.21038e-05
x1.vout.t51                        1.22306e-05
x1.ibias.t66                          0.655833
x1.a_n1962_4406.t25                1.21228e-05
x1.vout.t30                        1.22308e-05
x1.ibias.t67                          0.655833
x1.a_n1962_4406.t24                 1.2123e-05
x1.vout.t24                        1.22308e-05
x1.ibias.t68                          0.655833
x1.a_n1962_4406.t23                1.21229e-05
x1.vss.t256                        0.000104042
x1.en.t56                                  1.7
x1.a_8862_4192.t14                 0.000939834
x1.a_8862_4192.t13                 0.000939718
x1.en.t57                                  1.7
x1.vss.t255                         7.6625e-05
x1.vdd.t21                                 1.7
x1.a_n935_8875.t22                     1.26136
x1.a_n935_8875.t23                     1.26136
x1.a_3329_8823.t50                 1.20909e-05
x1.vss.t109                        1.21945e-05
x1.vss.t110                        1.21945e-05
x1.vout.t56                        1.22306e-05
x1.ibias.t69                          0.655833
x1.a_n1962_4406.t22                1.21231e-05
x1.a_n1962_4406.t21                1.21229e-05
x1.ibias.t70                          0.655833
x1.vout.t20                        1.22307e-05
x1.a_3329_8823.t16                 1.20909e-05
x1.ibias.t71                          0.655833
x1.a_3868_4185.t17                 1.20884e-05
x1.vss.t108                         1.2083e-05
x1.vss.t107                         1.2083e-05
x1.a_3868_4185.t46                 1.20884e-05
x1.vout.t79                        1.22374e-05
x1.a_n735_8972.t42                     1.26183
x1.vdd.t38                                 1.7
x1.vout.t34                        1.22306e-05
x1.ibias.t72                          0.655833
x1.a_n1962_4406.t20                1.21228e-05
x1.a_n1962_4406.t19                1.21229e-05
x1.ibias.t73                          0.655833
x1.vout.t11                        1.22307e-05
x1.vss.t106                         1.2083e-05
x1.vss.t105                         1.2083e-05
x1.a_3868_4185.t45                 1.20884e-05
x1.vss.t104                        1.21945e-05
x1.vss.t101                        1.21945e-05
x1.vss.t103                        1.21945e-05
x1.vss.t102                        1.29759e-05
x1.a_n1962_4406.t18                1.21227e-05
x1.ibias.t74                          0.655833
x1.vout.t31                        1.22307e-05
x1.vss.t100                        7.06803e-05
x1.vss.t99                         6.33129e-05
x1.vss.t254                        7.60172e-05
x1.en.t58                                  1.7
x1.a_8862_4192.t12                  0.00093832
x1.vout.t8                         1.22307e-05
x1.ibias.t75                          0.655833
x1.a_n1962_4406.t17                1.21227e-05
x1.a_n1962_4406.t16                1.21227e-05
x1.ibias.t76                          0.655833
x1.vout.t32                        1.22307e-05
x1.a_n1962_4406.t15                1.21226e-05
x1.ibias.t77                          0.655833
x1.vout.t4                         1.22307e-05
x1.a_3868_4185.t16                 1.20884e-05
x1.ibias.t78                          0.655833
x1.a_3329_8823.t21                 1.20909e-05
x1.vss.t98                         6.22926e-05
x1.vss.t97                         6.22926e-05
x1.ibias.t9                           0.655736
x1.a_n1962_4406.t93                1.21226e-05
x1.en.t59                                  1.7
x1.vss.t253                         1.2109e-05
x1.vout.t19                        1.22307e-05
x1.ibias.t79                          0.655833
x1.a_n1962_4406.t14                1.21227e-05
x1.a_n1962_4406.t92                1.21225e-05
x1.en.t60                                  1.7
x1.vss.t252                        1.21058e-05
x1.a_3868_4185.t15                 1.20884e-05
x1.ibias.t80                          0.655833
x1.a_3329_8823.t36                 1.20909e-05
x1.vss.t251                        9.29174e-05
x1.en.t61                                  1.7
x1.a_8862_4192.t11                 0.000939546
x1.vdd.t60                                 1.7
x1.vdd.t58                                 1.7
x1.vdd.t59                                 1.7
x1.a_n735_8972.t11                     1.26183
x1.vp.t12                                    0
x1.a_3329_8823.t40                 1.20909e-05
x1.vss.t250                         1.2109e-05
x1.en.t62                                  1.7
x1.a_n1962_4406.t91                1.21226e-05
x1.vss.t96                         1.21038e-05
x1.vss.t95                         1.21038e-05
x1.a_8862_4192.t10                 0.000938433
x1.en.t63                                  1.7
x1.vss.t249                        0.000102677
x1.a_3868_4185.t14                 1.20884e-05
x1.ibias.t81                          0.655833
x1.a_3329_8823.t32                 1.20909e-05
x1.vss.t247                        1.21058e-05
x1.en.t64                                  1.7
x1.a_n1962_4406.t90                1.21225e-05
x1.a_3329_8823.t23                 1.20909e-05
x1.ibias.t82                          0.655833
x1.a_3868_4185.t13                 1.20884e-05
x1.a_8862_4192.t9                  0.000939465
x1.en.t65                                  1.7
x1.vss.t246                          7.376e-05
x1.vss.t245                        1.20881e-05
x1.en.t66                                  1.7
x1.a_3868_4185.t66                 1.20884e-05
x1.a_n735_8972.t1                      1.26183
x1.a_n935_8875.t39                     1.26136
x1.vdd.t9                                  1.7
x1.vdd.t35                                 1.7
x1.a_n735_8972.t43                     1.26183
x1.vout.t76                        1.22374e-05
x1.a_n1962_4406.t13                1.21228e-05
x1.ibias.t83                          0.655833
x1.vout.t43                        1.22306e-05
x1.a_3329_8823.t45                 1.20909e-05
x1.vn.t11                          1.22353e-05
x1.a_n935_8875.t4                      1.26136
x1.vout.t88                        1.22373e-05
x1.a_n735_8972.t44                     1.26183
x1.vdd.t108                                1.7
x1.vss.t244                        1.21107e-05
x1.en.t67                                  1.7
x1.a_n1962_4406.t89                1.21226e-05
x1.a_3868_4185.t12                 1.20884e-05
x1.ibias.t84                          0.655833
x1.a_3329_8823.t10                 1.20909e-05
x1.vss.t94                          1.2083e-05
x1.vss.t93                          1.2083e-05
x1.a_3868_4185.t44                 1.20884e-05
x1.a_3868_4185.t43                 1.20884e-05
x1.vss.t91                          1.2083e-05
x1.vss.t92                          1.2083e-05
x1.a_3329_8823.t7                  1.20909e-05
x1.ibias.t85                          0.655833
x1.a_3868_4185.t11                 1.20884e-05
x1.vdd.t10                                 1.7
x1.a_n935_8875.t40                     1.26136
x1.a_n735_8972.t2                      1.26183
x1.vss.t90                         1.21945e-05
x1.vss.t88                         1.21945e-05
x1.a_n935_8875.t17                     1.26136
x1.a_n935_8875.t3                      1.26136
x1.vn.t12                          1.22353e-05
x1.a_3329_8823.t57                 1.20909e-05
x1.vdd.t57                                 1.7
x1.vdd.t55                                 1.7
x1.vdd.t56                                 1.7
x1.vss.t243                        1.21074e-05
x1.en.t68                                  1.7
x1.a_n1962_4406.t88                1.21225e-05
x1.a_3868_4185.t10                 1.20884e-05
x1.ibias.t86                          0.655833
x1.a_3329_8823.t3                  1.20909e-05
x1.vss.t87                         6.78605e-05
x1.vss.t86                         6.04753e-05
x1.vss.t242                         7.3588e-05
x1.en.t69                                  1.7
x1.a_8862_4192.t8                  0.000938538
x1.a_3329_8823.t29                 1.20909e-05
x1.ibias.t87                          0.655833
x1.a_3868_4185.t9                  1.20884e-05
x1.vout.t74                        1.22374e-05
x1.a_n735_8972.t45                     1.26183
x1.vdd.t32                                 1.7
x1.a_3868_4185.t65                 1.20884e-05
x1.en.t70                                  1.7
x1.vss.t241                        1.20881e-05
x1.vdd.t102                                1.7
x1.a_n735_8972.t46                     1.26183
x1.vout.t84                        1.22373e-05
x1.a_8862_4192.t7                  0.000938618
x1.en.t71                                  1.7
x1.vss.t240                        9.24302e-05
x1.vss.t239                        1.20881e-05
x1.en.t72                                  1.7
x1.a_3868_4185.t64                 1.20884e-05
x1.vdd.t12                                 1.7
x1.a_n935_8875.t20                     1.26136
x1.a_n935_8875.t21                     1.26136
x1.a_n935_8875.t2                      1.26136
x1.vn.t13                          1.22353e-05
x1.a_3329_8823.t68                 1.20909e-05
x1.vdd.t54                                 1.7
x1.vdd.t53                                 1.7
x1.a_n935_8875.t16                     1.26136
x1.vss.t83                         1.21945e-05
x1.vss.t85                         1.21945e-05
x1.vss.t82                         1.21038e-05
x1.vss.t81                         1.21038e-05
x1.vout.t85                        1.22373e-05
x1.a_n735_8972.t47                     1.26183
x1.vdd.t104                                1.7
x1.vss.t80                         1.21038e-05
x1.vss.t79                         1.21038e-05
x1.a_n1962_4406.t67                1.21226e-05
x1.a_3868_4185.t8                  1.20884e-05
x1.ibias.t88                          0.655833
x1.a_3329_8823.t26                 1.20909e-05
x1.vss.t78                         1.21038e-05
x1.vss.t76                         1.21038e-05
x1.vdd.t107                                1.7
x1.a_n735_8972.t48                     1.26183
x1.vout.t87                        1.22374e-05
x1.a_n1962_4406.t66                1.21229e-05
x1.vss.t74                         1.21038e-05
x1.vss.t75                         1.21038e-05
x1.vss.t73                         1.21945e-05
x1.vss.t71                         1.21945e-05
x1.vss.t72                         1.21945e-05
x1.vdd.t24                                 1.7
x1.a_n735_8972.t49                     1.26183
x1.vout.t70                        1.22374e-05
x1.vss.t238                        1.21171e-05
x1.en.t73                                  1.7
x1.a_n1962_4406.t87                1.21228e-05
x1.vss.t70                         1.21038e-05
x1.vss.t68                         1.21038e-05
x1.vss.t69                         1.21038e-05
x1.vout.t72                        1.22372e-05
x1.a_n735_8972.t50                     1.26183
x1.vdd.t26                                 1.7
x1.vout.t41                        1.22306e-05
x1.ibias.t89                          0.655833
x1.a_n1962_4406.t12                1.21229e-05
x1.a_n1962_4406.t65                1.21229e-05
x1.vss.t66                         1.21038e-05
x1.vss.t67                         1.21038e-05
x1.a_n1962_4406.t86                1.21227e-05
x1.en.t74                                  1.7
x1.vss.t237                        1.21139e-05
x1.vss.t65                         1.21945e-05
x1.vss.t63                         1.21945e-05
x1.a_3329_8823.t49                 1.20909e-05
x1.a_3329_8823.t48                 1.20909e-05
x1.vss.t60                         1.21945e-05
x1.vss.t62                         1.21945e-05
x1.a_n1962_4406.t11                1.21228e-05
x1.ibias.t90                          0.655833
x1.vout.t47                        1.22307e-05
x1.vss.t59                         1.21038e-05
x1.vss.t58                         1.21038e-05
x1.a_n1962_4406.t64                1.21229e-05
x1.vdd.t1                                  1.7
x1.a_n935_8875.t18                     1.26136
x1.a_n935_8875.t19                     1.26136
x1.a_n735_8972.t10                     1.26183
x1.vp.t13                                    0
x1.a_3329_8823.t41                 1.20909e-05
x1.a_n935_8875.t1                      1.26136
x1.vn.t14                          1.22353e-05
x1.a_3329_8823.t72                 1.20909e-05
x1.vss.t312                        1.36401e-05
x1.vdd.t52                                 1.7
x1.vdd.t50                                 1.7
x1.vdd.t51                                 1.7
x1.vout.t44                        1.22306e-05
x1.ibias.t91                          0.655833
x1.a_n1962_4406.t10                1.21228e-05
x1.vss.t57                         1.21038e-05
x1.vss.t55                         1.21038e-05
x1.a_n1962_4406.t63                1.21229e-05
x1.a_3329_8823.t30                 1.20909e-05
x1.ibias.t92                          0.655833
x1.a_3868_4185.t7                  1.20884e-05
x1.vdd.t49                                 1.7
x1.vdd.t46                                 1.7
x1.vdd.t48                                 1.7
x1.vout.t82                        1.22374e-05
x1.a_n735_8972.t51                     1.26183
x1.vdd.t100                                1.7
x1.vout.t36                        1.22307e-05
x1.ibias.t93                          0.655833
x1.a_n1962_4406.t9                 1.21229e-05
x1.vout.t37                        1.22308e-05
x1.ibias.t94                          0.655833
x1.a_n1962_4406.t8                 1.21229e-05
x1.a_3329_8823.t22                 1.20909e-05
x1.ibias.t95                          0.655833
x1.a_3868_4185.t6                  1.20884e-05
x1.a_3329_8823.t60                 1.20909e-05
x1.vp.t14                                    0
x1.a_n735_8972.t9                      1.26183
x1.vss.t213                        1.34686e-05
x1.a_n1962_4406.t85                1.21225e-05
x1.en.t75                                  1.7
x1.vss.t236                        1.21123e-05
x1.a_9909_7861.t1                      1.26183
x1.vout.t78                        1.22331e-05
x1.a_3868_4185.t42                 1.20884e-05
x1.vss.t53                          1.2083e-05
x1.vss.t54                          1.2083e-05
x1.vout.t80                        1.22374e-05
x1.a_n735_8972.t52                     1.26183
x1.vdd.t98                                 1.7
x1.a_n1962_4406.t7                 1.21227e-05
x1.ibias.t96                          0.655833
x1.vout.t12                        1.22307e-05
x1.a_n1962_4406.t6                 1.21226e-05
x1.ibias.t97                          0.655833
x1.vout.t5                         1.22308e-05
x1.a_3868_4185.t63                 1.20884e-05
x1.en.t76                                  1.7
x1.vss.t235                        1.20881e-05
x1.vss.t234                        1.20881e-05
x1.en.t77                                  1.7
x1.a_3868_4185.t62                 1.20884e-05
x1.vss.t233                        1.20881e-05
x1.en.t78                                  1.7
x1.a_3868_4185.t61                 1.20884e-05
x1.a_3868_4185.t41                 1.20884e-05
x1.vss.t50                          1.2083e-05
x1.vss.t52                          1.2083e-05
x1.a_n735_8972.t6                      1.26183
x1.a_n935_8875.t41                     1.26136
x1.vdd.t34                                 1.7
x1.a_n735_8972.t3                      1.26183
x1.vss.t47                         1.21945e-05
x1.vss.t49                         1.21945e-05
x1.vss.t48                         1.32698e-05
x1.a_n1962_4406.t84                1.21228e-05
x1.en.t79                                  1.7
x1.vss.t223                        1.21171e-05
x1.vss.t232                        1.21123e-05
x1.en.t80                                  1.7
x1.a_n1962_4406.t83                1.21227e-05
x1.vout.t1                         1.22307e-05
x1.ibias.t98                          0.655833
x1.a_n1962_4406.t5                 1.21227e-05
x1.vss.t46                         1.21038e-05
x1.vss.t44                         1.21038e-05
x1.vss.t43                         7.08752e-05
x1.vss.t42                         6.34989e-05
x1.a_3868_4185.t60                 1.20884e-05
x1.en.t81                                  1.7
x1.vss.t231                        1.20881e-05
x1.a_3329_8823.t76                 1.20909e-05
x1.vp.t15                                    0
x1.a_n735_8972.t8                      1.26183
x1.a_n1962_4406.t62                1.21225e-05
x1.vss.t40                         1.21038e-05
x1.vss.t41                         1.21038e-05
x1.vss.t228                         1.2109e-05
x1.en.t82                                  1.7
x1.a_n1962_4406.t82                1.21226e-05
x1.vout.t7                         1.22307e-05
x1.ibias.t99                          0.655833
x1.a_n1962_4406.t4                 1.21226e-05
x1.a_n1962_4406.t61                1.21225e-05
x1.vss.t37                         1.21038e-05
x1.vss.t39                         1.21038e-05
x1.vss.t230                        1.21058e-05
x1.en.t83                                  1.7
x1.a_n1962_4406.t81                1.21225e-05
x1.vss.t229                        1.20881e-05
x1.en.t84                                  1.7
x1.a_3868_4185.t59                 1.20884e-05
x1.vss.t227                        7.55519e-05
x1.en.t85                                  1.7
x1.a_8862_4192.t6                  0.000939695
x1.vss.t226                        1.20881e-05
x1.en.t86                                  1.7
x1.a_3868_4185.t58                 1.20884e-05
x1.vss.t36                         1.21038e-05
x1.vss.t35                         1.21038e-05
x1.a_3868_4185.t5                  1.20884e-05
x1.ibias.t100                         0.655833
x1.a_3329_8823.t15                 1.20909e-05
x1.a_3868_4185.t4                  1.20884e-05
x1.ibias.t101                         0.655833
x1.a_3329_8823.t37                 1.20909e-05
x1.a_n1962_4406.t3                 1.21231e-05
x1.ibias.t102                         0.655833
x1.vout.t48                        1.22306e-05
x1.a_8862_4192.t5                  0.000939815
x1.en.t87                                  1.7
x1.vss.t225                        0.000104042
x1.vout.t60                        1.22373e-05
x1.a_n735_8972.t53                     1.26183
x1.vdd.t3                                  1.7
x1.vdd.t6                                  1.7
x1.a_n735_8972.t54                     1.26183
x1.vout.t61                        1.22373e-05
x1.a_n1962_4406.t80                1.21227e-05
x1.en.t88                                  1.7
x1.vss.t224                        1.21155e-05
x1.a_3329_8823.t33                 1.20909e-05
x1.ibias.t103                         0.655833
x1.a_3868_4185.t3                  1.20884e-05
x1.ibias.t8                            0.65573
x1.vss.t33                         5.67355e-05
x1.vss.t34                         5.67355e-05
x1.vss.t32                         5.86405e-05
x1.vss.t29                         5.86918e-05
x1.vss.t31                         7.34563e-05
x1.vout.t33                        1.22307e-05
x1.ibias.t104                         0.655833
x1.a_n1962_4406.t2                 1.21227e-05
x1.a_3329_8823.t20                 1.20909e-05
x1.ibias.t105                         0.655833
x1.a_3868_4185.t2                  1.20884e-05
x1.vss.t28                          1.2083e-05
x1.vss.t26                          1.2083e-05
x1.a_3868_4185.t40                 1.20884e-05
x1.vdd.t45                                 1.7
x1.vdd.t43                                 1.7
x1.vdd.t42                                 1.7
x1.vdd.t39                                 1.7
x1.vdd.t41                                 1.7
x1.a_3868_4185.t1                  1.20884e-05
x1.ibias.t106                         0.655833
x1.a_3329_8823.t31                 1.20909e-05
x1.a_3868_4185.t57                 1.20884e-05
x1.en.t89                                  1.7
x1.vss.t222                        1.20881e-05
x1.a_3329_8823.t19                 1.20909e-05
x1.ibias.t107                         0.655833
x1.a_3868_4185.t0                  1.20884e-05
x1.a_3868_4185.t56                 1.20884e-05
x1.en.t90                                  1.7
x1.vss.t221                        1.20881e-05
x1.a_n1962_4406.t1                 1.21227e-05
x1.ibias.t108                         0.655833
x1.vout.t27                        1.22307e-05
x1.vss.t25                         1.21038e-05
x1.vss.t24                         1.21038e-05
x1.a_n1962_4406.t60                1.21229e-05
x1.vss.t23                         6.84391e-05
x1.vss.t21                         6.10547e-05
x1.vss.t220                         7.4069e-05
x1.en.t91                                  1.7
x1.a_8862_4192.t4                  0.000939472
x1.a_n935_8875.t0                      1.26136
x1.vn.t15                          1.22353e-05
x1.a_3329_8823.t44                 1.20909e-05
x1.a_n1962_4406.t0                 1.21229e-05
x1.ibias.t109                         0.655833
x1.vout.t59                        1.22307e-05
x1.en.n0                                   1.7
x1.en.n3                                   1.7
x1.en.n7                                   1.7
x1.en.n11                                  1.7
x1.en.n15                                  1.7
x1.en.n38                                  1.7
x1.en.n41                                  1.7
x1.en.n44                                  1.7
x1.en.n50                                  1.7
x1.en.n56                                  1.7
x1.en.n62                                  1.7
x1.en.n68                                  1.7
x1.en.n74                                  1.7
x1.en.n80                                  1.7
x1.en.n19                                  1.7
x1.en.n22                                  1.7
x1.en.n26                                  1.7
x1.en.n30                                  1.7
x1.en.n34                                  1.7
x1.en.n87                                  1.7
x1.en.n89                                  1.7
x1.en.n88                                  1.7
x1.en.n2                                   1.7
x1.en.n1                                   1.7
x1.en.n5                                   1.7
x1.en.n4                                   1.7
x1.en.n9                                   1.7
x1.en.n8                                   1.7
x1.en.n13                                  1.7
x1.en.n12                                  1.7
x1.en.n17                                  1.7
x1.en.n16                                  1.7
x1.en.n39                                  1.7
x1.en.n40                                  1.7
x1.en.n42                                  1.7
x1.en.n43                                  1.7
x1.en.n45                                  1.7
x1.en.n46                                  1.7
x1.en.n47                                  1.7
x1.en.n48                                  1.7
x1.en.n51                                  1.7
x1.en.n52                                  1.7
x1.en.n53                                  1.7
x1.en.n54                                  1.7
x1.en.n57                                  1.7
x1.en.n58                                  1.7
x1.en.n59                                  1.7
x1.en.n60                                  1.7
x1.en.n63                                  1.7
x1.en.n64                                  1.7
x1.en.n65                                  1.7
x1.en.n66                                  1.7
x1.en.n69                                  1.7
x1.en.n70                                  1.7
x1.en.n71                                  1.7
x1.en.n72                                  1.7
x1.en.n75                                  1.7
x1.en.n76                                  1.7
x1.en.n77                                  1.7
x1.en.n78                                  1.7
x1.en.n81                                  1.7
x1.en.n82                                  1.7
x1.en.n20                                  1.7
x1.en.n21                                  1.7
x1.en.n23                                  1.7
x1.en.n24                                  1.7
x1.en.n27                                  1.7
x1.en.n28                                  1.7
x1.en.n31                                  1.7
x1.en.n32                                  1.7
x1.en.n35                                  1.7
x1.en.n36                                  1.7
x1.en.n84                                  1.7
x1.en.n83                                  1.7
x1.en.n90                                  1.7
x1.en.n49                                  1.7
x1.en.n25                                  1.7
x1.en.n29                                  1.7
x1.en.n37                                  1.7
x1.en.n6                                   1.7
x1.en.n61                                  1.7
x1.en.n73                                  1.7
x1.en.n10                                  1.7
x1.en.n14                                  1.7
x1.en.n18                                  1.7
x1.en.n33                                  1.7
x1.en.n55                                  1.7
x1.en.n67                                  1.7
x1.en.n79                                  1.7
x1.en.n86                                  1.7
x1.en.n85                                  1.7
x1.vss.n1977                       1.42539e-05
x1.vss.n1888                        5.8627e-05
x1.vss.n2092                       1.28813e-05
x1.vss.n1496                       1.22147e-05
x1.vss.n2383                       5.84216e-05
x1.vss.n123                         5.8809e-05
x1.vss.n1376                       1.22135e-05
x1.vss.n719                        1.22141e-05
x1.vss.n1211                       1.21899e-05
x1.vss.n825                        1.21823e-05
x1.vss.n2192                       1.42788e-05
x1.vss.n243                        1.43592e-05
x1.vss.n2109                       1.27317e-05
x1.vss.n668                        1.25677e-05
x1.vss.n2129                        1.3479e-05
x1.vss.n317                        1.34002e-05
x1.vss.n661                        1.33973e-05
x1.vss.n314                        1.34746e-05
x1.vss.n2337                        4.9844e-05
x1.vss.n165                         4.8941e-05
x1.vss.n1494                       1.22141e-05
x1.vss.n722                        1.22135e-05
x1.vss.n1905                       1.41704e-05
x1.vss.n1529                       1.40768e-05
x1.vss.n187                        4.89911e-05
x1.vss.n167                        4.98948e-05
x1.vss.n2224                        1.5979e-05
x1.vss.n213                         1.6329e-05
x1.vss.n590                        1.48571e-05
x1.vss.n211                        1.49531e-05
x1.vss.n1207                       1.22206e-05
x1.vss.n826                        1.22265e-05
x1.vss.n2090                       1.29743e-05
x1.vss.n1499                       1.30747e-05
x1.vss.n1886                       5.86993e-05
x1.vss.n1534                       5.87401e-05
x1.vss.n1879                       5.86993e-05
x1.vss.n1878                       5.87401e-05
x1.vss.n1639                       5.78566e-05
x1.vss.n127                         5.7431e-05
x1.vss.n524                         1.6584e-05
x1.vss.n523                        1.65742e-05
x1.vss.n568                         1.6158e-05
x1.vss.n567                        1.62744e-05
x1.vss.n1663                       5.83354e-05
x1.vss.n1662                       5.83068e-05
x1.vss.n1707                       5.86516e-05
x1.vss.n1706                       5.85922e-05
x1.vss.n2335                       4.80933e-05
x1.vss.n2226                       1.66471e-05
x1.vss.n164                        4.96131e-05
x1.vss.n2333                       4.87863e-05
x1.vss.n2332                       4.94083e-05
x1.vss.n2331                       4.92308e-05
x1.vss.n2227                       4.86795e-05
x1.vss.n2330                       4.90774e-05
x1.vss.n2329                        4.8596e-05
x1.vss.n2328                       4.89451e-05
x1.vss.n2327                        4.8527e-05
x1.vss.n2326                       4.84685e-05
x1.vss.n2325                       4.88311e-05
x1.vss.n2324                       4.87329e-05
x1.vss.n2323                       4.84184e-05
x1.vss.n2322                       4.83754e-05
x1.vss.n2321                       4.86485e-05
x1.vss.n2320                        4.8576e-05
x1.vss.n2319                       4.83386e-05
x1.vss.n2318                       4.83071e-05
x1.vss.n2317                        4.8514e-05
x1.vss.n2316                        4.8461e-05
x1.vss.n2315                       4.82801e-05
x1.vss.n2314                       4.82572e-05
x1.vss.n2313                       4.84159e-05
x1.vss.n2312                       4.83777e-05
x1.vss.n2311                       4.82378e-05
x1.vss.n2310                       4.82216e-05
x1.vss.n2309                       4.83457e-05
x1.vss.n2308                       4.83191e-05
x1.vss.n2307                        4.8208e-05
x1.vss.n2306                        4.8197e-05
x1.vss.n2305                       4.82974e-05
x1.vss.n2304                       4.82801e-05
x1.vss.n2303                       4.81882e-05
x1.vss.n2302                       4.81814e-05
x1.vss.n2301                       4.82667e-05
x1.vss.n2300                       4.82572e-05
x1.vss.n2299                       4.81766e-05
x1.vss.n2298                       4.81735e-05
x1.vss.n2297                       4.82511e-05
x1.vss.n2296                       4.82484e-05
x1.vss.n2295                       4.81721e-05
x1.vss.n2294                       4.81725e-05
x1.vss.n2293                       4.82491e-05
x1.vss.n2292                       4.82532e-05
x1.vss.n2291                       4.81745e-05
x1.vss.n2290                       4.81783e-05
x1.vss.n2289                       4.82606e-05
x1.vss.n2288                       4.82717e-05
x1.vss.n2287                       4.81839e-05
x1.vss.n2286                       4.81915e-05
x1.vss.n2285                       4.82866e-05
x1.vss.n2284                       4.83057e-05
x1.vss.n2283                       4.82012e-05
x1.vss.n2282                       4.82132e-05
x1.vss.n2281                       4.83294e-05
x1.vss.n2280                       4.83581e-05
x1.vss.n2279                       4.82278e-05
x1.vss.n2278                       4.82453e-05
x1.vss.n2277                       4.83925e-05
x1.vss.n2276                       4.84334e-05
x1.vss.n2275                       4.82661e-05
x1.vss.n2274                       4.82906e-05
x1.vss.n2273                       4.84816e-05
x1.vss.n2272                       4.85382e-05
x1.vss.n2271                       4.83193e-05
x1.vss.n2270                       4.83529e-05
x1.vss.n2269                       4.86043e-05
x1.vss.n2268                       4.86814e-05
x1.vss.n2267                       4.83922e-05
x1.vss.n2266                       4.84378e-05
x1.vss.n2265                       4.87712e-05
x1.vss.n2264                       4.88756e-05
x1.vss.n2263                       4.84911e-05
x1.vss.n2262                       4.85533e-05
x1.vss.n2261                       4.89968e-05
x1.vss.n2260                       4.91374e-05
x1.vss.n2259                       4.86266e-05
x1.vss.n2258                       4.87151e-05
x1.vss.n2257                       4.93003e-05
x1.vss.n2256                       4.94889e-05
x1.vss.n2255                       4.88281e-05
x1.vss.n2254                       4.97064e-05
x1.vss.n2253                        5.0493e-05
x1.vss.n2336                       4.91747e-05
x1.vss.n2252                        5.0768e-05
x1.vss.n2251                       5.02627e-05
x1.vss.n166                        4.97265e-05
x1.vss.n2250                       5.10651e-05
x1.vss.n162                        5.06513e-05
x1.vss.n2342                        5.0234e-05
x1.vss.n2249                       5.13803e-05
x1.vss.n161                        5.10424e-05
x1.vss.n2343                        5.0708e-05
x1.vss.n2248                       5.17102e-05
x1.vss.n160                        5.14311e-05
x1.vss.n2344                       5.11564e-05
x1.vss.n2247                       5.20524e-05
x1.vss.n2246                       5.18169e-05
x1.vss.n159                        5.15848e-05
x1.vss.n2245                       5.24049e-05
x1.vss.n155                        5.22003e-05
x1.vss.n2350                       5.19979e-05
x1.vss.n2244                       5.27664e-05
x1.vss.n154                        5.25821e-05
x1.vss.n2351                       5.23989e-05
x1.vss.n2243                       5.31359e-05
x1.vss.n153                        5.29632e-05
x1.vss.n2352                       5.27905e-05
x1.vss.n2242                        5.3513e-05
x1.vss.n2241                       5.33442e-05
x1.vss.n152                        5.31745e-05
x1.vss.n2240                       5.38975e-05
x1.vss.n148                         5.3726e-05
x1.vss.n2358                       5.35526e-05
x1.vss.n2239                       5.42894e-05
x1.vss.n147                         5.4109e-05
x1.vss.n2359                       5.39257e-05
x1.vss.n2238                       5.46893e-05
x1.vss.n146                        5.44938e-05
x1.vss.n2360                       5.42947e-05
x1.vss.n2237                       5.50977e-05
x1.vss.n2236                       5.48811e-05
x1.vss.n145                          5.466e-05
x1.vss.n2235                       5.55156e-05
x1.vss.n141                        5.52715e-05
x1.vss.n2366                       5.50219e-05
x1.vss.n2234                       5.59442e-05
x1.vss.n140                        5.56655e-05
x1.vss.n2367                       5.53804e-05
x1.vss.n2233                        5.6385e-05
x1.vss.n139                        5.60637e-05
x1.vss.n2368                       5.57354e-05
x1.vss.n2232                       5.68398e-05
x1.vss.n2231                       5.64668e-05
x1.vss.n135                        5.60863e-05
x1.vss.n2230                        5.7311e-05
x1.vss.n134                        5.68748e-05
x1.vss.n2374                       5.64326e-05
x1.vss.n2229                       5.78012e-05
x1.vss.n133                        5.72869e-05
x1.vss.n2375                       5.67733e-05
x1.vss.n2228                        5.8314e-05
x1.vss.n132                        5.76984e-05
x1.vss.n2376                       5.71071e-05
x1.vss.n124                        5.80936e-05
x1.vss.n122                        5.88537e-05
x1.vss.n126                         5.7433e-05
x1.vss.n2384                       5.94267e-05
x1.vss.n2382                       5.77503e-05
x1.vss.n121                        5.93704e-05
x1.vss.n1715                        5.8803e-05
x1.vss.n1714                       5.92408e-05
x1.vss.n1713                       5.91305e-05
x1.vss.n1638                       5.87665e-05
x1.vss.n1712                        5.9036e-05
x1.vss.n1711                        5.8725e-05
x1.vss.n1710                        5.8686e-05
x1.vss.n1709                       5.89552e-05
x1.vss.n1708                       5.88861e-05
x1.vss.n1705                       5.87685e-05
x1.vss.n1704                       5.87174e-05
x1.vss.n1703                       5.85662e-05
x1.vss.n1702                       5.85437e-05
x1.vss.n1701                       5.86729e-05
x1.vss.n1700                       5.86341e-05
x1.vss.n1699                        5.8524e-05
x1.vss.n1698                       5.85067e-05
x1.vss.n1697                       5.86002e-05
x1.vss.n1696                       5.85703e-05
x1.vss.n1695                       5.84915e-05
x1.vss.n1694                       5.84781e-05
x1.vss.n1693                       5.85438e-05
x1.vss.n1692                       5.85202e-05
x1.vss.n1691                       5.84661e-05
x1.vss.n1690                       5.84553e-05
x1.vss.n1689                        5.8499e-05
x1.vss.n1688                       5.84797e-05
x1.vss.n1687                       5.84455e-05
x1.vss.n1686                       5.84365e-05
x1.vss.n1685                       5.84619e-05
x1.vss.n1684                       5.84453e-05
x1.vss.n1683                        5.8428e-05
x1.vss.n1682                       5.84199e-05
x1.vss.n1681                       5.84293e-05
x1.vss.n1680                       5.84138e-05
x1.vss.n1679                        5.8412e-05
x1.vss.n1678                       5.84042e-05
x1.vss.n1677                       5.83984e-05
x1.vss.n1676                       5.83827e-05
x1.vss.n1675                       5.83962e-05
x1.vss.n1674                       5.83879e-05
x1.vss.n1673                       5.83664e-05
x1.vss.n1672                       5.83492e-05
x1.vss.n1671                       5.83792e-05
x1.vss.n1670                       5.83698e-05
x1.vss.n1669                       5.83307e-05
x1.vss.n1668                       5.83105e-05
x1.vss.n1667                       5.83595e-05
x1.vss.n1666                       5.83481e-05
x1.vss.n1665                       5.82881e-05
x1.vss.n1664                       5.82631e-05
x1.vss.n1661                       5.82067e-05
x1.vss.n1660                       5.81742e-05
x1.vss.n1659                       5.82902e-05
x1.vss.n1658                       5.82711e-05
x1.vss.n1657                       5.81366e-05
x1.vss.n1656                        5.8093e-05
x1.vss.n1655                        5.8249e-05
x1.vss.n1654                       5.82234e-05
x1.vss.n1653                       5.80427e-05
x1.vss.n1652                       5.79845e-05
x1.vss.n1651                       5.81938e-05
x1.vss.n1650                       5.81595e-05
x1.vss.n1649                        5.7917e-05
x1.vss.n1648                        5.7839e-05
x1.vss.n1647                       5.81196e-05
x1.vss.n1646                       5.80729e-05
x1.vss.n1645                       5.77487e-05
x1.vss.n1644                       5.76442e-05
x1.vss.n1643                       5.80175e-05
x1.vss.n1642                        5.7949e-05
x1.vss.n1641                       5.75234e-05
x1.vss.n1640                        5.7384e-05
x1.vss.n129                        5.69201e-05
x1.vss.n1718                        5.8041e-05
x1.vss.n2381                       5.72175e-05
x1.vss.n2380                       5.67376e-05
x1.vss.n2379                       5.65341e-05
x1.vss.n128                        5.69683e-05
x1.vss.n2378                       5.63116e-05
x1.vss.n2377                       5.66985e-05
x1.vss.n131                        5.64141e-05
x1.vss.n130                        5.60722e-05
x1.vss.n2373                        5.6118e-05
x1.vss.n2372                       5.58178e-05
x1.vss.n2371                       5.55503e-05
x1.vss.n136                        5.58122e-05
x1.vss.n2370                       5.52714e-05
x1.vss.n2369                       5.54981e-05
x1.vss.n138                        5.51769e-05
x1.vss.n137                        5.49825e-05
x1.vss.n2365                       5.48495e-05
x1.vss.n2364                       5.46851e-05
x1.vss.n2363                       5.43805e-05
x1.vss.n142                        5.45167e-05
x1.vss.n2362                       5.40699e-05
x1.vss.n2361                       5.41791e-05
x1.vss.n144                        5.38372e-05
x1.vss.n143                        5.37546e-05
x1.vss.n2357                       5.34913e-05
x1.vss.n2356                       5.34356e-05
x1.vss.n2355                       5.31143e-05
x1.vss.n149                        5.31416e-05
x1.vss.n2354                       5.27917e-05
x1.vss.n2353                       5.27883e-05
x1.vss.n151                        5.24311e-05
x1.vss.n150                        5.24692e-05
x1.vss.n2349                         5.207e-05
x1.vss.n2348                       5.21485e-05
x1.vss.n2347                       5.18311e-05
x1.vss.n156                        5.17044e-05
x1.vss.n2346                       5.15194e-05
x1.vss.n2345                       5.13341e-05
x1.vss.n158                        5.09589e-05
x1.vss.n157                        5.12157e-05
x1.vss.n2341                       5.05796e-05
x1.vss.n2340                       5.09232e-05
x1.vss.n2339                       5.06458e-05
x1.vss.n163                        5.02015e-05
x1.vss.n2338                       5.03879e-05
x1.vss.n1785                        5.9437e-05
x1.vss.n1617                       5.90467e-05
x1.vss.n1616                       5.87188e-05
x1.vss.n1784                       5.94418e-05
x1.vss.n1783                       5.90347e-05
x1.vss.n1782                       5.86731e-05
x1.vss.n1779                       5.90002e-05
x1.vss.n1778                        5.9437e-05
x1.vss.n1780                        5.8464e-05
x1.vss.n1777                       5.94302e-05
x1.vss.n1720                       5.89646e-05
x1.vss.n1719                       5.82003e-05
x1.vss.n1776                       5.94251e-05
x1.vss.n1775                       5.89461e-05
x1.vss.n125                        5.79196e-05
x1.vss.n1536                       5.87786e-05
x1.vss.n1531                       5.86952e-05
x1.vss.n1877                       5.87583e-05
x1.vss.n1538                       5.87869e-05
x1.vss.n1876                       5.87302e-05
x1.vss.n1721                       5.87964e-05
x1.vss.n1537                       5.87762e-05
x1.vss.n1539                       5.87577e-05
x1.vss.n1722                       5.88069e-05
x1.vss.n1543                       5.87928e-05
x1.vss.n1870                       5.87804e-05
x1.vss.n1723                        5.8818e-05
x1.vss.n1544                       5.88082e-05
x1.vss.n1869                       5.87998e-05
x1.vss.n1724                       5.88295e-05
x1.vss.n1545                       5.88228e-05
x1.vss.n1868                       5.88171e-05
x1.vss.n1726                       5.88412e-05
x1.vss.n1725                       5.88367e-05
x1.vss.n1546                       5.88328e-05
x1.vss.n1727                       5.88532e-05
x1.vss.n1550                       5.88501e-05
x1.vss.n1862                       5.88474e-05
x1.vss.n1728                       5.88653e-05
x1.vss.n1551                       5.88632e-05
x1.vss.n1861                       5.88614e-05
x1.vss.n1729                       5.88776e-05
x1.vss.n1552                       5.88761e-05
x1.vss.n1860                       5.88749e-05
x1.vss.n1731                       5.88898e-05
x1.vss.n1730                       5.88888e-05
x1.vss.n1553                        5.8888e-05
x1.vss.n1732                       5.89022e-05
x1.vss.n1557                       5.89015e-05
x1.vss.n1854                       5.89009e-05
x1.vss.n1733                       5.89145e-05
x1.vss.n1558                       5.89141e-05
x1.vss.n1853                       5.89137e-05
x1.vss.n1734                       5.89269e-05
x1.vss.n1559                       5.89266e-05
x1.vss.n1852                       5.89263e-05
x1.vss.n1736                       5.89393e-05
x1.vss.n1735                       5.89391e-05
x1.vss.n1560                       5.89389e-05
x1.vss.n1737                       5.89517e-05
x1.vss.n1564                       5.89516e-05
x1.vss.n1846                       5.89515e-05
x1.vss.n1738                       5.89641e-05
x1.vss.n1565                        5.8964e-05
x1.vss.n1845                        5.8964e-05
x1.vss.n1739                       5.89765e-05
x1.vss.n1566                       5.89764e-05
x1.vss.n1844                       5.89764e-05
x1.vss.n1741                       5.89889e-05
x1.vss.n1740                       5.89889e-05
x1.vss.n1567                       5.89889e-05
x1.vss.n1742                       5.90013e-05
x1.vss.n1571                       5.90013e-05
x1.vss.n1838                       5.90013e-05
x1.vss.n1743                       5.90137e-05
x1.vss.n1572                       5.90137e-05
x1.vss.n1837                       5.90138e-05
x1.vss.n1744                       5.90261e-05
x1.vss.n1573                       5.90261e-05
x1.vss.n1836                       5.90262e-05
x1.vss.n1746                       5.90385e-05
x1.vss.n1745                       5.90385e-05
x1.vss.n1574                       5.90386e-05
x1.vss.n1747                       5.90509e-05
x1.vss.n1578                       5.90509e-05
x1.vss.n1830                        5.9051e-05
x1.vss.n1748                       5.90633e-05
x1.vss.n1579                       5.90633e-05
x1.vss.n1829                       5.90634e-05
x1.vss.n1749                       5.90757e-05
x1.vss.n1580                       5.90757e-05
x1.vss.n1828                       5.90758e-05
x1.vss.n1751                        5.9088e-05
x1.vss.n1750                       5.90881e-05
x1.vss.n1581                       5.90882e-05
x1.vss.n1752                       5.91004e-05
x1.vss.n1585                       5.91004e-05
x1.vss.n1822                       5.91005e-05
x1.vss.n1753                       5.91128e-05
x1.vss.n1586                       5.91128e-05
x1.vss.n1821                       5.91128e-05
x1.vss.n1754                       5.91252e-05
x1.vss.n1587                       5.91251e-05
x1.vss.n1820                        5.9125e-05
x1.vss.n1756                       5.91376e-05
x1.vss.n1755                       5.91373e-05
x1.vss.n1588                       5.91372e-05
x1.vss.n1757                         5.915e-05
[...]
x1.a_3868_4185.n12                 1.20884e-05
x1.a_3868_4185.n11                 1.20884e-05
x1.a_3868_4185.n29                 1.20884e-05
x1.a_3868_4185.n32                 1.20884e-05
x1.a_3868_4185.n31                 1.20884e-05
x1.a_3868_4185.n34                 1.20884e-05
x1.a_3868_4185.n33                 1.20884e-05
x1.a_3868_4185.n36                 1.20884e-05
x1.a_3868_4185.n35                 1.20884e-05
x1.a_3868_4185.n38                 1.20884e-05
x1.a_3868_4185.n37                 1.20884e-05
x1.a_3868_4185.n40                 1.20884e-05
x1.a_3868_4185.n39                 1.20884e-05
x1.a_3868_4185.n42                 1.20884e-05
x1.a_3868_4185.n41                 1.20884e-05
x1.a_3868_4185.n14                 1.20884e-05
x1.a_3868_4185.n17                 1.20884e-05
x1.a_3868_4185.n16                 1.20884e-05
x1.a_3868_4185.n19                 1.20884e-05
x1.a_3868_4185.n18                 1.20884e-05
x1.a_3868_4185.n21                 1.20884e-05
x1.a_3868_4185.n20                 1.20884e-05
x1.a_3868_4185.n23                 1.20884e-05
x1.a_3868_4185.n22                 1.20884e-05
x1.a_3868_4185.n25                 1.20884e-05
x1.a_3868_4185.n24                 1.20884e-05
x1.a_3868_4185.n27                 1.20884e-05
x1.a_3868_4185.n26                 1.20884e-05
x1.a_3868_4185.n45                 1.20884e-05
x1.a_3868_4185.n48                 1.20884e-05
x1.a_3868_4185.n47                 1.20884e-05
x1.a_3868_4185.n50                 1.20884e-05
x1.a_3868_4185.n49                 1.20884e-05
x1.a_3868_4185.n52                 1.20884e-05
x1.a_3868_4185.n51                 1.20884e-05
x1.a_3868_4185.n54                 1.20884e-05
x1.a_3868_4185.n53                 1.20884e-05
x1.a_3868_4185.n56                 1.20884e-05
x1.a_3868_4185.n55                 1.20884e-05
x1.a_3868_4185.n58                 1.20884e-05
x1.a_3868_4185.n57                 1.20884e-05
x1.a_3868_4185.n60                 1.20884e-05
x1.a_3868_4185.n63                 1.20884e-05
x1.a_3868_4185.n62                 1.20884e-05
x1.a_3868_4185.n65                 1.20884e-05
x1.a_3868_4185.n64                 1.20884e-05
x1.a_3868_4185.n67                 1.20884e-05
x1.a_3868_4185.n66                 1.20884e-05
x1.a_3868_4185.n69                 1.20884e-05
x1.a_3868_4185.n68                 1.20884e-05
x1.a_3868_4185.n71                 1.20884e-05
x1.a_3868_4185.n70                 1.20884e-05
x1.a_3868_4185.n73                 1.20884e-05
x1.a_3868_4185.n72                 1.20884e-05
x1.a_3868_4185.n77                 1.20884e-05
x1.a_3868_4185.n76                 1.20884e-05
x1.a_3868_4185.n43                 1.20884e-05
x1.a_3868_4185.n74                 1.20884e-05
x1.a_3868_4185.n75                 1.20884e-05
x1.vout.n15                        1.22355e-05
x1.vout.n13                        1.22373e-05
x1.vout.n2                         1.22356e-05
x1.vout.n0                         1.22374e-05
x1.vout.n1                         1.22374e-05
x1.vout.n4                         1.22356e-05
x1.vout.n3                         1.22373e-05
x1.vout.n6                         1.22356e-05
x1.vout.n5                         1.22373e-05
x1.vout.n8                         1.22355e-05
x1.vout.n7                         1.22373e-05
x1.vout.n10                        1.22355e-05
x1.vout.n9                         1.22372e-05
x1.vout.n12                        1.22354e-05
x1.vout.n11                        1.22372e-05
x1.vout.n14                        1.22373e-05
x1.vout.n17                        1.22355e-05
x1.vout.n16                        1.22373e-05
x1.vout.n19                        1.22355e-05
x1.vout.n18                        1.22372e-05
x1.vout.n21                        1.22354e-05
x1.vout.n20                        1.22372e-05
x1.vout.n23                        1.22354e-05
x1.vout.n22                        1.22371e-05
x1.vout.n25                        1.22353e-05
x1.vout.n24                        1.22371e-05
x1.vout.n68                         1.2231e-05
x1.vout.n66                        1.22307e-05
x1.vout.n63                         1.2231e-05
x1.vout.n61                        1.22307e-05
x1.vout.n58                         1.2231e-05
x1.vout.n56                        1.22307e-05
x1.vout.n53                         1.2231e-05
x1.vout.n51                        1.22307e-05
x1.vout.n48                         1.2231e-05
x1.vout.n46                        1.22307e-05
x1.vout.n43                         1.2231e-05
x1.vout.n41                        1.22307e-05
x1.vout.n38                        1.22311e-05
x1.vout.n36                        1.22307e-05
x1.vout.n33                        1.22311e-05
x1.vout.n31                        1.22308e-05
x1.vout.n73                         1.2231e-05
x1.vout.n71                        1.22307e-05
x1.vout.n28                        1.22311e-05
x1.vout.n26                        1.22308e-05
x1.vout.n75                         1.2231e-05
x1.vout.n74                        1.22307e-05
x1.vout.n72                        1.22307e-05
x1.vout.n70                         1.2231e-05
x1.vout.n69                        1.22307e-05
x1.vout.n67                        1.22307e-05
x1.vout.n65                         1.2231e-05
x1.vout.n64                        1.22307e-05
x1.vout.n62                        1.22307e-05
x1.vout.n60                         1.2231e-05
x1.vout.n59                        1.22307e-05
x1.vout.n57                        1.22307e-05
x1.vout.n55                         1.2231e-05
x1.vout.n54                        1.22307e-05
x1.vout.n52                        1.22307e-05
x1.vout.n50                         1.2231e-05
x1.vout.n49                        1.22307e-05
x1.vout.n47                        1.22307e-05
x1.vout.n45                         1.2231e-05
x1.vout.n44                        1.22307e-05
x1.vout.n42                        1.22307e-05
x1.vout.n40                        1.22311e-05
x1.vout.n39                        1.22308e-05
x1.vout.n37                        1.22308e-05
x1.vout.n35                        1.22311e-05
x1.vout.n34                        1.22308e-05
x1.vout.n32                        1.22308e-05
x1.vout.n30                        1.22311e-05
x1.vout.n29                        1.22308e-05
x1.vout.n27                        1.22308e-05
x1.vout.n86                        1.22352e-05
x1.vout.n85                        1.22331e-05
x1.vout.n84                        1.22311e-05
x1.vout.n87                        1.22353e-05
x1.vout.n76                         1.2231e-05
x1.vout.n78                         1.2231e-05
x1.vout.n80                         1.2231e-05
x1.vout.n82                        1.22311e-05
x1.vout.n77                         1.2231e-05
x1.vout.n79                         1.2231e-05
x1.vout.n81                         1.2231e-05
x1.vout.n83                        1.22311e-05
x1.a_n1962_4406.n21                1.21227e-05
x1.a_n1962_4406.n19                1.21229e-05
x1.a_n1962_4406.n115               1.21227e-05
x1.a_n1962_4406.n113               1.21229e-05
x1.a_n1962_4406.n2                 1.21228e-05
x1.a_n1962_4406.n0                  1.2123e-05
x1.a_n1962_4406.n8                 1.21227e-05
x1.a_n1962_4406.n6                  1.2123e-05
x1.a_n1962_4406.n58                1.21227e-05
x1.a_n1962_4406.n56                 1.2123e-05
x1.a_n1962_4406.n25                1.21227e-05
x1.a_n1962_4406.n23                1.21229e-05
x1.a_n1962_4406.n39                1.21227e-05
x1.a_n1962_4406.n37                1.21229e-05
x1.a_n1962_4406.n5                 1.21227e-05
x1.a_n1962_4406.n3                  1.2123e-05
x1.a_n1962_4406.n98                1.21227e-05
x1.a_n1962_4406.n96                1.21229e-05
x1.a_n1962_4406.n79                1.21227e-05
x1.a_n1962_4406.n77                1.21229e-05
x1.a_n1962_4406.n83                1.21227e-05
x1.a_n1962_4406.n81                1.21229e-05
x1.a_n1962_4406.n48                1.21227e-05
x1.a_n1962_4406.n36                1.21229e-05
x1.a_n1962_4406.n52                1.21227e-05
x1.a_n1962_4406.n22                1.21229e-05
x1.a_n1962_4406.n92                1.21227e-05
x1.a_n1962_4406.n80                1.21229e-05
x1.a_n1962_4406.n110               1.21227e-05
x1.a_n1962_4406.n109               1.21227e-05
x1.a_n1962_4406.n112               1.21227e-05
x1.a_n1962_4406.n111               1.21227e-05
x1.a_n1962_4406.n119               1.21227e-05
x1.a_n1962_4406.n118               1.21226e-05
x1.a_n1962_4406.n117               1.21227e-05
x1.a_n1962_4406.n116               1.21226e-05
x1.a_n1962_4406.n114               1.21226e-05
x1.a_n1962_4406.n76                1.21227e-05
x1.a_n1962_4406.n75                1.21228e-05
x1.a_n1962_4406.n1                 1.21228e-05
x1.a_n1962_4406.n72                1.21227e-05
x1.a_n1962_4406.n71                1.21228e-05
x1.a_n1962_4406.n18                1.21227e-05
x1.a_n1962_4406.n17                1.21227e-05
x1.a_n1962_4406.n16                1.21227e-05
x1.a_n1962_4406.n15                1.21227e-05
x1.a_n1962_4406.n14                1.21227e-05
x1.a_n1962_4406.n13                1.21227e-05
x1.a_n1962_4406.n12                1.21227e-05
x1.a_n1962_4406.n11                1.21226e-05
x1.a_n1962_4406.n10                1.21227e-05
x1.a_n1962_4406.n9                 1.21226e-05
x1.a_n1962_4406.n7                 1.21226e-05
x1.a_n1962_4406.n68                1.21227e-05
x1.a_n1962_4406.n67                1.21227e-05
x1.a_n1962_4406.n66                1.21227e-05
x1.a_n1962_4406.n65                1.21227e-05
x1.a_n1962_4406.n64                1.21227e-05
x1.a_n1962_4406.n63                1.21227e-05
x1.a_n1962_4406.n62                1.21227e-05
x1.a_n1962_4406.n61                1.21226e-05
x1.a_n1962_4406.n60                1.21227e-05
x1.a_n1962_4406.n59                1.21226e-05
x1.a_n1962_4406.n57                1.21226e-05
x1.a_n1962_4406.n55                1.21227e-05
x1.a_n1962_4406.n54                1.21228e-05
x1.a_n1962_4406.n20                1.21228e-05
x1.a_n1962_4406.n51                1.21227e-05
x1.a_n1962_4406.n50                1.21227e-05
x1.a_n1962_4406.n35                1.21227e-05
x1.a_n1962_4406.n34                1.21227e-05
x1.a_n1962_4406.n33                1.21227e-05
x1.a_n1962_4406.n32                1.21227e-05
x1.a_n1962_4406.n31                1.21227e-05
x1.a_n1962_4406.n30                1.21227e-05
x1.a_n1962_4406.n29                1.21227e-05
x1.a_n1962_4406.n28                1.21226e-05
x1.a_n1962_4406.n27                1.21227e-05
x1.a_n1962_4406.n26                1.21226e-05
x1.a_n1962_4406.n24                1.21226e-05
x1.a_n1962_4406.n47                1.21227e-05
x1.a_n1962_4406.n46                1.21226e-05
x1.a_n1962_4406.n45                1.21227e-05
x1.a_n1962_4406.n44                1.21229e-05
x1.a_n1962_4406.n43                1.21227e-05
x1.a_n1962_4406.n42                1.21225e-05
x1.a_n1962_4406.n41                1.21227e-05
x1.a_n1962_4406.n40                1.21229e-05
x1.a_n1962_4406.n38                1.21225e-05
x1.a_n1962_4406.n4                 1.21228e-05
x1.a_n1962_4406.n106               1.21227e-05
x1.a_n1962_4406.n105               1.21227e-05
x1.a_n1962_4406.n104               1.21227e-05
x1.a_n1962_4406.n103               1.21227e-05
x1.a_n1962_4406.n102               1.21227e-05
x1.a_n1962_4406.n101               1.21227e-05
x1.a_n1962_4406.n100               1.21227e-05
x1.a_n1962_4406.n99                1.21226e-05
x1.a_n1962_4406.n97                1.21226e-05
x1.a_n1962_4406.n95                1.21227e-05
x1.a_n1962_4406.n94                1.21228e-05
x1.a_n1962_4406.n78                1.21228e-05
x1.a_n1962_4406.n91                1.21227e-05
x1.a_n1962_4406.n90                1.21226e-05
x1.a_n1962_4406.n89                1.21227e-05
x1.a_n1962_4406.n88                1.21229e-05
x1.a_n1962_4406.n87                1.21227e-05
x1.a_n1962_4406.n86                1.21226e-05
x1.a_n1962_4406.n85                1.21227e-05
x1.a_n1962_4406.n84                1.21229e-05
x1.a_n1962_4406.n82                1.21225e-05
x1.a_n1962_4406.n121               1.21227e-05
x1.a_n1962_4406.n120               1.21227e-05
x1.a_n1962_4406.n49                1.21227e-05
x1.a_n1962_4406.n53                1.21227e-05
x1.a_n1962_4406.n70                1.21227e-05
x1.a_n1962_4406.n69                1.21227e-05
x1.a_n1962_4406.n74                1.21227e-05
x1.a_n1962_4406.n73                1.21227e-05
x1.a_n1962_4406.n93                1.21227e-05
x1.a_n1962_4406.n108               1.21227e-05
x1.a_n1962_4406.n107               1.21227e-05
x1.vp.n0                                     0
x1.vp.n1                                     0
x1.vp.n3                                     0
x1.vp.n7                                     0
x1.vp.n9                                     0
x1.vp.n13                                    0
x1.vp.n4                                     0
x1.vp.n5                                     0
x1.vp.n10                                    0
x1.vp.n11                                    0
x1.vp.n14                                    0
x1.vp.n2                                     0
x1.vp.n8                                     0
x1.vp.n6                                     0
x1.vp.n12                                    0
x1.a_n735_8972.n50                     1.26183
x1.a_n735_8972.n49                     1.26183
x1.a_n735_8972.n52                     1.26183
x1.a_n735_8972.n51                     1.26183
x1.a_n735_8972.n47                     1.26183
x1.a_n735_8972.n0                      1.26183
x1.a_n735_8972.n48                     1.26183
x1.a_n735_8972.n36                     1.26183
x1.a_n735_8972.n33                     1.26183
x1.a_n735_8972.n30                     1.26183
x1.a_n735_8972.n27                     1.26183
x1.a_n735_8972.n24                     1.26183
x1.a_n735_8972.n21                     1.26183
x1.a_n735_8972.n18                     1.26183
x1.a_n735_8972.n37                     1.26183
x1.a_n735_8972.n38                     1.26183
x1.a_n735_8972.n34                     1.26183
x1.a_n735_8972.n35                     1.26183
x1.a_n735_8972.n31                     1.26183
x1.a_n735_8972.n32                     1.26183
x1.a_n735_8972.n28                     1.26183
x1.a_n735_8972.n29                     1.26183
x1.a_n735_8972.n25                     1.26183
x1.a_n735_8972.n26                     1.26183
x1.a_n735_8972.n22                     1.26183
x1.a_n735_8972.n23                     1.26183
x1.a_n735_8972.n19                     1.26183
x1.a_n735_8972.n20                     1.26183
x1.a_n735_8972.n5                      1.26183
x1.a_n735_8972.n4                      1.26183
x1.a_n735_8972.n11                     1.26183
x1.a_n735_8972.n10                     1.26183
x1.a_n735_8972.n17                     1.26183
x1.a_n735_8972.n16                     1.26183
x1.a_n735_8972.n3                      1.26183
x1.a_n735_8972.n1                      1.26183
x1.a_n735_8972.n8                      1.26183
x1.a_n735_8972.n6                      1.26183
x1.a_n735_8972.n14                     1.26183
x1.a_n735_8972.n12                     1.26183
x1.a_n735_8972.n13                     1.26183
x1.a_n735_8972.n2                      1.26183
x1.a_n735_8972.n7                      1.26183
x1.a_n735_8972.n45                     1.26183
x1.a_n735_8972.n46                     1.26183
x1.a_n735_8972.n44                     1.26183
x1.a_n735_8972.n39                     1.26183
x1.a_n735_8972.n40                     1.26183
x1.a_n735_8972.n41                     1.26183
x1.a_n735_8972.n42                     1.26183
x1.a_n735_8972.n43                     1.26183
x1.a_n735_8972.n9                      1.26183
x1.a_n735_8972.n15                     1.26183
x1.vn.n0                           1.22353e-05
x1.vn.n1                           1.22353e-05
x1.vn.n3                           1.22353e-05
x1.vn.n7                           1.22353e-05
x1.vn.n9                           1.22353e-05
x1.vn.n13                          1.22353e-05
x1.vn.n5                           1.22353e-05
x1.vn.n4                           1.22353e-05
x1.vn.n11                          1.22353e-05
x1.vn.n10                          1.22353e-05
x1.vn.n14                          1.22353e-05
x1.vn.n2                           1.22353e-05
x1.vn.n8                           1.22353e-05
x1.vn.n6                           1.22353e-05
x1.vn.n12                          1.22353e-05
x1.a_n935_8875.n41                     1.26136
x1.a_n935_8875.n35                     1.26136
x1.a_n935_8875.n6                      1.26136
x1.a_n935_8875.n4                      1.26136
x1.a_n935_8875.n19                     1.26136
x1.a_n935_8875.n13                     1.26136
x1.a_n935_8875.n27                     1.26136
x1.a_n935_8875.n25                     1.26136
x1.a_n935_8875.n15                     1.26136
x1.a_n935_8875.n37                     1.26136
x1.a_n935_8875.n11                     1.26136
x1.a_n935_8875.n10                     1.26136
x1.a_n935_8875.n32                     1.26136
x1.a_n935_8875.n31                     1.26136
x1.a_n935_8875.n5                      1.26136
x1.a_n935_8875.n26                     1.26136
x1.a_n935_8875.n8                      1.26136
x1.a_n935_8875.n21                     1.26136
x1.a_n935_8875.n14                     1.26136
x1.a_n935_8875.n29                     1.26136
x1.a_n935_8875.n43                     1.26136
x1.a_n935_8875.n36                     1.26136
x1.a_n935_8875.n55                     1.26136
x1.a_n935_8875.n54                     1.26136
x1.a_n935_8875.n59                     1.26136
x1.a_n935_8875.n58                     1.26136
x1.a_n935_8875.n56                     1.26136
x1.a_n935_8875.n50                     1.26136
x1.a_n935_8875.n53                     1.26136
x1.a_n935_8875.n51                     1.26136
x1.a_n935_8875.n49                     1.26136
x1.a_n935_8875.n47                     1.26136
x1.a_n935_8875.n2                      1.26136
x1.a_n935_8875.n0                      1.26136
x1.a_n935_8875.n52                     1.26136
x1.a_n935_8875.n48                     1.26136
x1.a_n935_8875.n1                      1.26136
x1.a_n935_8875.n46                     1.26136
x1.a_n935_8875.n45                     1.26136
x1.a_n935_8875.n9                      1.26136
x1.a_n935_8875.n22                     1.26136
x1.a_n935_8875.n16                     1.26136
x1.a_n935_8875.n30                     1.26136
x1.a_n935_8875.n44                     1.26136
x1.a_n935_8875.n38                     1.26136
x1.a_n935_8875.n7                      1.26136
x1.a_n935_8875.n3                      1.26136
x1.a_n935_8875.n18                     1.26136
x1.a_n935_8875.n17                     1.26136
x1.a_n935_8875.n20                     1.26136
x1.a_n935_8875.n12                     1.26136
x1.a_n935_8875.n28                     1.26136
x1.a_n935_8875.n24                     1.26136
x1.a_n935_8875.n42                     1.26136
x1.a_n935_8875.n34                     1.26136
x1.a_n935_8875.n40                     1.26136
x1.a_n935_8875.n39                     1.26136
x1.a_n935_8875.n23                     1.26136
x1.a_n935_8875.n33                     1.26136
x1.a_n935_8875.n57                     1.26136
v.x1.x62.x0.vrbody_3#branch                  0
evdrv1#branch                     -1.52466e-20
v3#branch                                    0
v2#branch                         -5.00017e-06
v0#branch                          5.00017e-06

 Reference value :  0.00000e+00
 Reference value :  1.00000e-10
 Reference value :  4.00000e-10
 Reference value :  1.60000e-09
 Reference value :  6.40000e-09
 Reference value :  2.28000e-08
 Reference value :  4.28000e-08
 Reference value :  6.28000e-08
 Reference value :  8.28000e-08
 Reference value :  1.00000e-07
No. of Data Rows : 18
 meas tran sr max deriv(v(vout)) failed!

