
Note: Compatibility modes selected: hs a


Circuit: ** sch_path: /foss/designs/sky130_op_amp/runs/run_2025-10-21_19-47-49/parameters/gain_mc/run_2/run_1/sky130_op_amp_tb.sch

option SCALE: Scale is set to 1e-06 for instance and model parameters
option SCALE: Scale is set to 1e-06 for instance and model parameters
option SCALE: Scale is set to 1e-06 for instance and model parameters
option SCALE: Scale is set to 1e-06 for instance and model parameters
Doing analysis at TEMP = 130.000000 and TNOM = 27.000000

Using SPARSE 1.3 as Direct Linear Solver
 Reference value :  1.00000e+03
 Reference value :  2.51189e+03
 Reference value :  6.30957e+03
 Reference value :  1.25893e+04
 Reference value :  2.51189e+04
 Reference value :  4.46684e+04
 Reference value :  8.91251e+04
 Reference value :  1.58489e+05
 Reference value :  2.81838e+05
 Reference value :  6.30957e+05
 Reference value :  1.25893e+06
 Reference value :  2.23872e+06
 Reference value :  4.46684e+06
 Reference value :  8.91251e+06
 Reference value :  1.41254e+07
 Reference value :  2.81838e+07
 Reference value :  5.62341e+07
No. of Data Rows : 101
a0                  =  1.744285e+02
ugf                 =  5.739623e+06
pm                  =  8.623351e+01
Note: Simulation executed from .control section 
