
Note: Compatibility modes selected: hs a


Circuit: ** sch_path: /foss/designs/sky130_op_amp/runs/run_2025-10-21_18-52-57/parameters/slew_rate/run_39/transient.sch

option SCALE: Scale is set to 1e-06 for instance and model parameters
option SCALE: Scale is set to 1e-06 for instance and model parameters
option SCALE: Scale is set to 1e-06 for instance and model parameters
option SCALE: Scale is set to 1e-06 for instance and model parameters
Doing analysis at TEMP = 130.000000 and TNOM = 27.000000

Using SPARSE 1.3 as Direct Linear Solver

Initial Transient Solution
--------------------------

Node                                   Voltage
----                                   -------
vdd                                        1.7
ibias                                 0.659207
vout                               1.31399e-05
vss                                          0
vn                                 1.31399e-05
vp                                           0
x1.a_8862_4192.t27                  0.00145953
x1.en.t0                                   1.7
x1.vss.t311                        9.30163e-05
x1.vss.t215                        5.47366e-05
x1.vdd.t97                                 1.7
x1.vdd.t96                                 1.7
x1.vdd.t44                                 1.7
x1.vdd.t95                                 1.7
x1.vdd.t93                                 1.7
x1.vdd.t94                                 1.7
x1.vdd.t47                                 1.7
x1.a_3868_4185.t39                 1.21252e-05
x1.ibias.t10                          0.659187
x1.a_3329_8823.t39                 1.23208e-05
x1.vss.t0                          1.41655e-05
x1.a_n1962_4406.t59                1.22371e-05
x1.ibias.t11                          0.659187
x1.vout.t21                        1.31098e-05
x1.vss.t6                          1.22136e-05
x1.a_n1962_4406.t58                1.22371e-05
x1.ibias.t12                          0.659187
x1.vout.t53                        1.31101e-05
x1.vss.t211                        5.35369e-05
x1.vss.t209                        5.36964e-05
x1.vss.t210                        6.85546e-05
x1.vss.t30                         5.01458e-05
x1.a_3329_8823.t38                 1.23208e-05
x1.ibias.t13                          0.659187
x1.a_3868_4185.t38                 1.21252e-05
x1.vss.t1                          1.40034e-05
x1.vss.t208                         1.2203e-05
x1.vss.t207                        1.22029e-05
x1.vss.t64                         1.40924e-05
x1.vdd.t92                                 1.7
x1.vdd.t91                                 1.7
x1.vdd.t71                                 1.7
x1.a_3868_4185.t37                 1.21252e-05
x1.ibias.t14                          0.659187
x1.a_3329_8823.t8                  1.23208e-05
x1.vss.t11                         1.38434e-05
x1.a_n735_8972.t23                     1.47921
x1.vp.t0                                     0
x1.a_3329_8823.t56                 1.23233e-05
x1.vss.t2                          1.35985e-05
x1.vss.t310                        1.21233e-05
x1.en.t1                                   1.7
x1.a_n1962_4406.t123               1.22358e-05
x1.vss.t77                         1.22202e-05
x1.a_3868_4185.t36                 1.21246e-05
x1.ibias.t15                          0.659187
x1.a_3329_8823.t17                 1.23208e-05
x1.vss.t7                          1.45379e-05
x1.a_3329_8823.t66                 1.23234e-05
x1.vn.t0                           1.31399e-05
x1.a_n935_8875.t15                     1.47867
x1.vss.t4                           1.3717e-05
x1.vdd.t19                                 1.7
x1.a_n735_8972.t27                     1.47921
x1.vout.t67                        1.31528e-05
x1.vdd.t15                                 1.7
x1.a_n1962_4406.t122               1.22366e-05
x1.en.t2                                   1.7
x1.vss.t309                        1.21233e-05
x1.vss.t8                          1.22191e-05
x1.a_3329_8823.t65                 1.23233e-05
x1.vn.t1                           1.31399e-05
x1.a_n935_8875.t14                     1.47867
x1.vss.t5                          1.34806e-05
x1.vdd.t36                                 1.7
x1.a_n735_8972.t28                     1.47921
x1.vout.t77                        1.31519e-05
x1.vdd.t5                                  1.7
x1.vss.t206                        1.22029e-05
x1.vss.t205                        1.22029e-05
x1.a_3329_8823.t55                 1.23231e-05
x1.a_n1962_4406.t57                1.22394e-05
x1.ibias.t16                          0.659187
x1.vout.t45                        1.31095e-05
x1.vss.t212                        1.22154e-05
x1.a_n1962_4406.t56                1.22372e-05
x1.ibias.t17                          0.659187
x1.vout.t2                         1.31096e-05
x1.vss.t308                        1.21233e-05
x1.en.t3                                   1.7
x1.a_n1962_4406.t121               1.22367e-05
x1.vss.t19                         1.22163e-05
x1.a_3329_8823.t43                 1.23234e-05
x1.vn.t2                           1.31399e-05
x1.a_n935_8875.t13                     1.47867
x1.vdd.t90                                 1.7
x1.vdd.t89                                 1.7
x1.a_n1962_4406.t79                1.22382e-05
x1.vss.t203                        1.21098e-05
x1.vss.t204                        1.21098e-05
x1.vss.t20                         1.22172e-05
x1.a_n1962_4406.t120               1.22367e-05
x1.en.t4                                   1.7
x1.vss.t307                         1.2125e-05
x1.vout.t38                        1.31096e-05
x1.ibias.t18                          0.659187
x1.a_n1962_4406.t55                1.22372e-05
x1.vss.t12                         1.22182e-05
x1.vss.t202                        1.21098e-05
x1.vss.t201                        1.21098e-05
x1.a_n1962_4406.t78                 1.2236e-05
x1.vss.t56                         1.22222e-05
x1.vdd.t88                                 1.7
x1.vdd.t87                                 1.7
x1.a_n935_8875.t12                     1.47867
x1.vn.t3                           1.31399e-05
x1.a_3329_8823.t62                 1.23231e-05
x1.vss.t84                         1.33337e-05
x1.vout.t46                        1.31095e-05
x1.ibias.t19                          0.659187
x1.a_n1962_4406.t54                1.22394e-05
x1.vss.t9                          1.22145e-05
x1.vdd.t86                                 1.7
x1.vdd.t84                                 1.7
x1.vdd.t85                                 1.7
x1.a_3329_8823.t63                 1.23231e-05
x1.vp.t1                                     0
x1.a_n735_8972.t22                     1.47921
x1.vss.t89                         1.39557e-05
x1.vss.t306                         1.2125e-05
x1.en.t5                                   1.7
x1.a_n1962_4406.t119               1.22367e-05
x1.vdd.t17                                 1.7
x1.a_n735_8972.t29                     1.47921
x1.vout.t65                        1.31538e-05
x1.vdd.t16                                 1.7
x1.a_n735_8972.t30                     1.47921
x1.vout.t64                        1.31536e-05
x1.vss.t198                        1.21098e-05
x1.vss.t197                        1.21098e-05
x1.a_n1962_4406.t53                1.22384e-05
x1.ibias.t20                          0.659187
x1.vout.t42                        1.31095e-05
x1.vss.t45                          1.2215e-05
x1.vout.t35                        1.31095e-05
x1.ibias.t21                          0.659187
x1.a_n1962_4406.t52                1.22372e-05
x1.vss.t16                         1.22127e-05
x1.vss.t200                        1.20866e-05
x1.vss.t199                        1.20866e-05
x1.a_3868_4185.t55                 1.21244e-05
x1.vss.t27                         1.57185e-05
x1.vss.t196                        1.20866e-05
x1.vss.t195                        1.20866e-05
x1.a_3868_4185.t54                 1.21244e-05
x1.a_n1962_4406.t77                1.22381e-05
x1.vss.t193                        1.21098e-05
x1.vss.t194                        1.21098e-05
x1.vss.t38                         1.22213e-05
x1.a_3329_8823.t42                 1.23234e-05
x1.vn.t4                           1.31399e-05
x1.a_n935_8875.t11                     1.47867
x1.a_n1962_4406.t118               1.22367e-05
x1.en.t6                                   1.7
x1.vss.t305                        1.21233e-05
x1.vss.t15                         1.22124e-05
x1.a_n1962_4406.t117               1.22367e-05
x1.en.t7                                   1.7
x1.vss.t304                        1.21199e-05
x1.vss.t192                         7.0359e-05
x1.vss.t191                        6.30187e-05
x1.vss.t22                         5.73662e-05
x1.a_n735_8972.t21                     1.47921
x1.vp.t2                                     0
x1.a_3329_8823.t73                 1.23233e-05
x1.vss.t313                        1.39892e-05
x1.a_n1962_4406.t51                1.22372e-05
x1.ibias.t22                          0.659187
x1.vout.t9                         1.31098e-05
x1.a_n1962_4406.t116               1.22366e-05
x1.en.t8                                   1.7
x1.vss.t303                        1.21163e-05
x1.a_3329_8823.t35                 1.23209e-05
x1.ibias.t23                          0.659187
x1.a_3868_4185.t35                  1.2125e-05
x1.vss.t14                         1.36817e-05
x1.ibias.t7                           0.658973
x1.ibias.t6                           0.659175
x1.a_8862_4192.t0                   0.00168964
x1.vss.t214                        5.33327e-05
x1.vss.t302                        0.000103884
x1.en.t9                                   1.7
x1.a_8862_4192.t26                  0.00145878
x1.a_n935_8875.t33                     1.47867
x1.a_n935_8875.t32                     1.47867
x1.vdd.t110                                1.7
x1.vdd.t8                                  1.7
x1.a_n1962_4406.t50                1.22372e-05
x1.ibias.t24                          0.659187
x1.vout.t3                         1.31101e-05
x1.vss.t190                        1.21098e-05
x1.vss.t188                        1.21098e-05
x1.vss.t189                        1.21098e-05
x1.vout.t0                         1.31098e-05
x1.ibias.t25                          0.659187
x1.a_n1962_4406.t49                1.22372e-05
x1.vout.t6                         1.31101e-05
x1.ibias.t26                          0.659187
x1.a_n1962_4406.t48                1.22372e-05
x1.a_3868_4185.t53                 1.21249e-05
x1.vss.t186                        1.20866e-05
x1.vss.t187                        1.20866e-05
x1.vss.t51                         1.35129e-05
x1.a_8862_4192.t25                  0.00145871
x1.en.t10                                  1.7
x1.vss.t301                        7.70537e-05
x1.vss.t219                        5.18425e-05
x1.vss.t185                        5.90668e-05
x1.vss.t183                        5.91534e-05
x1.vss.t184                         7.3999e-05
x1.vdd.t7                                  1.7
x1.a_n735_8972.t31                     1.47921
x1.vout.t62                        1.31529e-05
x1.a_n735_8972.t7                      1.47921
x1.x62.x0.t1                           1.47921
x1.x62.x0.t2                           1.47921
x1.a_9909_7861.t0                      1.47921
x1.vss.t218                        5.90477e-05
x1.x62.x0.rbody_3                            0
x1.a_3868_4185.t34                  1.2125e-05
x1.ibias.t27                          0.659187
x1.a_3329_8823.t4                  1.23209e-05
x1.vss.t10                          1.5177e-05
x1.a_8862_4192.t3                   0.00168964
x1.ibias.t4                           0.659175
x1.ibias.t5                           0.659062
x1.vss.t300                        1.21266e-05
x1.en.t11                                  1.7
x1.a_n1962_4406.t115               1.22368e-05
x1.vss.t17                         1.22129e-05
x1.a_n1962_4406.t114               1.22357e-05
x1.en.t12                                  1.7
x1.vss.t299                         1.2118e-05
x1.vss.t182                        1.21098e-05
x1.vss.t181                        1.21098e-05
x1.a_n735_8972.t24                     1.47921
x1.a_n935_8875.t34                     1.47867
x1.vdd.t103                                1.7
x1.vdd.t30                                 1.7
x1.vss.t180                        1.22029e-05
x1.vss.t179                        1.22029e-05
x1.a_3329_8823.t54                 1.23231e-05
x1.a_3329_8823.t2                  1.23209e-05
x1.ibias.t28                          0.659187
x1.a_3868_4185.t33                 1.21252e-05
x1.vss.t13                         1.48261e-05
x1.vss.t178                        6.88893e-05
x1.vss.t177                        6.15418e-05
x1.vss.t293                        1.20926e-05
x1.en.t13                                  1.7
x1.a_3868_4185.t79                 1.21245e-05
x1.vss.t18                         1.43359e-05
x1.a_n935_8875.t10                     1.47867
x1.vn.t5                           1.31399e-05
x1.a_3329_8823.t64                 1.23234e-05
x1.vss.t298                         1.2118e-05
x1.en.t14                                  1.7
x1.a_n1962_4406.t113               1.22366e-05
x1.vss.t176                        1.21098e-05
x1.vss.t175                        1.21098e-05
x1.a_n1962_4406.t76                1.22382e-05
x1.a_3329_8823.t71                 1.23231e-05
x1.vn.t6                           1.31399e-05
x1.a_n935_8875.t9                      1.47867
x1.vdd.t83                                 1.7
x1.vdd.t82                                 1.7
x1.a_3868_4185.t78                 1.21245e-05
x1.en.t15                                  1.7
x1.vss.t297                        1.20926e-05
x1.a_3868_4185.t77                 1.21245e-05
x1.en.t16                                  1.7
x1.vss.t296                        1.20926e-05
x1.vdd.t33                                 1.7
x1.a_n735_8972.t32                     1.47921
x1.vout.t75                        1.31538e-05
x1.vss.t295                         9.1602e-05
x1.en.t17                                  1.7
x1.a_8862_4192.t24                   0.0014581
x1.a_3329_8823.t28                 1.23209e-05
x1.ibias.t29                          0.659187
x1.a_3868_4185.t32                  1.2125e-05
x1.a_3329_8823.t77                 1.23234e-05
x1.vp.t3                                     0
x1.a_n735_8972.t20                     1.47921
x1.vdd.t105                                1.7
x1.a_n735_8972.t33                     1.47921
x1.vout.t86                        1.31532e-05
x1.a_3868_4185.t31                 1.21246e-05
x1.ibias.t30                          0.659187
x1.a_3329_8823.t11                 1.23208e-05
x1.a_n1962_4406.t112               1.22366e-05
x1.en.t18                                  1.7
x1.vss.t294                        1.21216e-05
x1.a_8862_4192.t23                  0.00145805
x1.en.t19                                  1.7
x1.vss.t292                        7.22153e-05
x1.vss.t174                        5.45742e-05
x1.vss.t172                        5.45952e-05
x1.vss.t173                        6.93121e-05
x1.a_3329_8823.t12                 1.23208e-05
x1.ibias.t31                          0.659187
x1.a_3868_4185.t30                 1.21246e-05
x1.a_3868_4185.t52                 1.21249e-05
x1.vss.t170                        1.20866e-05
x1.vss.t171                        1.20866e-05
x1.vout.t49                        1.31099e-05
x1.ibias.t32                          0.659187
x1.a_n1962_4406.t47                1.22371e-05
x1.vout.t28                        1.31102e-05
x1.ibias.t33                          0.659187
x1.a_n1962_4406.t46                1.22371e-05
x1.a_n1962_4406.t45                1.22384e-05
x1.ibias.t34                          0.659187
x1.vout.t57                        1.31104e-05
x1.a_3868_4185.t76                 1.21243e-05
x1.en.t20                                  1.7
x1.vss.t291                        1.20926e-05
x1.a_3329_8823.t61                 1.23234e-05
x1.vp.t4                                     0
x1.a_n735_8972.t19                     1.47921
x1.vout.t69                        1.31538e-05
x1.a_n735_8972.t34                     1.47921
x1.vdd.t23                                 1.7
x1.vdd.t13                                 1.7
x1.vss.t130                        1.21098e-05
x1.vss.t129                        1.21098e-05
x1.a_3868_4185.t75                 1.21245e-05
x1.en.t21                                  1.7
x1.vss.t290                        1.20926e-05
x1.vss.t289                        1.20926e-05
x1.en.t22                                  1.7
x1.a_3868_4185.t74                 1.21245e-05
x1.vout.t54                        1.31096e-05
x1.ibias.t35                          0.659187
x1.a_n1962_4406.t44                1.22384e-05
x1.a_3868_4185.t29                 1.21252e-05
x1.ibias.t36                          0.659187
x1.a_3329_8823.t18                 1.23208e-05
x1.vss.t169                        1.21098e-05
x1.vss.t168                        1.21098e-05
x1.a_n1962_4406.t43                1.22372e-05
x1.ibias.t37                          0.659187
x1.vout.t52                        1.31096e-05
x1.vout.t25                        1.31095e-05
x1.ibias.t38                          0.659187
x1.a_n1962_4406.t42                1.22384e-05
x1.vss.t167                        1.21098e-05
x1.vss.t166                        1.21098e-05
x1.vout.t26                        1.31096e-05
x1.ibias.t39                          0.659187
x1.a_n1962_4406.t41                1.22372e-05
x1.vss.t165                        1.21098e-05
x1.vss.t164                        1.21098e-05
x1.a_n1962_4406.t75                1.22382e-05
x1.vss.t288                         1.2125e-05
x1.en.t23                                  1.7
x1.a_n1962_4406.t111               1.22367e-05
x1.a_n935_8875.t8                      1.47867
x1.vn.t7                           1.31399e-05
x1.a_3329_8823.t46                 1.23234e-05
x1.vss.t3                          1.38351e-05
x1.vdd.t81                                 1.7
x1.vdd.t80                                 1.7
x1.vss.t287                        1.21199e-05
x1.en.t24                                  1.7
x1.a_n1962_4406.t110               1.22357e-05
x1.vss.t286                        1.21163e-05
x1.en.t25                                  1.7
x1.a_n1962_4406.t109               1.22357e-05
x1.vdd.t106                                1.7
x1.a_n935_8875.t35                     1.47867
x1.a_n735_8972.t25                     1.47921
x1.vdd.t11                                 1.7
x1.a_n1962_4406.t40                1.22384e-05
x1.ibias.t40                          0.659187
x1.vout.t58                        1.31096e-05
x1.vss.t163                         1.2203e-05
x1.vss.t161                        1.22029e-05
x1.vss.t162                          1.432e-05
x1.vdd.t25                                 1.7
x1.a_n735_8972.t35                     1.47921
x1.vout.t71                        1.31525e-05
x1.vss.t160                        1.21098e-05
x1.vss.t158                        1.21098e-05
x1.vss.t159                        1.21098e-05
x1.a_n1962_4406.t108               1.22366e-05
x1.en.t26                                  1.7
x1.vss.t285                        1.21199e-05
x1.a_3329_8823.t27                 1.23209e-05
x1.ibias.t41                          0.659187
x1.a_3868_4185.t28                 1.21246e-05
x1.a_n935_8875.t31                     1.47867
x1.a_n935_8875.t30                     1.47867
x1.vdd.t37                                 1.7
x1.a_n1962_4406.t39                1.22384e-05
x1.ibias.t42                          0.659187
x1.vout.t13                        1.31095e-05
x1.vout.t16                        1.31096e-05
x1.ibias.t43                          0.659187
x1.a_n1962_4406.t38                1.22372e-05
x1.a_n1962_4406.t37                1.22372e-05
x1.ibias.t44                          0.659187
x1.vout.t22                        1.31097e-05
x1.a_n1962_4406.t107               1.22365e-05
x1.en.t27                                  1.7
x1.vss.t284                        1.21163e-05
x1.a_3329_8823.t0                  1.23209e-05
x1.ibias.t45                          0.659187
x1.a_3868_4185.t27                 1.21246e-05
x1.a_n735_8972.t18                     1.47921
x1.vp.t5                                     0
x1.a_3329_8823.t47                 1.23234e-05
x1.vss.t157                        1.22031e-05
x1.vss.t155                        1.22029e-05
x1.a_n735_8972.t4                      1.47921
x1.vss.t156                        1.41509e-05
x1.vout.t73                        1.31538e-05
x1.a_n735_8972.t36                     1.47921
x1.vdd.t27                                 1.7
x1.a_n1962_4406.t36                1.22372e-05
x1.ibias.t46                          0.659187
x1.vout.t39                        1.31096e-05
x1.a_n1962_4406.t106               1.22367e-05
x1.en.t28                                  1.7
x1.vss.t280                        1.21216e-05
x1.vss.t281                        1.21199e-05
x1.en.t29                                  1.7
x1.a_n1962_4406.t105               1.22366e-05
x1.vss.t283                        1.21163e-05
x1.en.t30                                  1.7
x1.a_n1962_4406.t104               1.22366e-05
x1.vss.t282                        0.000102987
x1.en.t31                                  1.7
x1.a_8862_4192.t22                  0.00145832
x1.a_3329_8823.t53                  1.2323e-05
x1.vss.t153                        1.22028e-05
x1.vss.t154                        1.22028e-05
x1.vss.t61                         1.31518e-05
x1.vout.t14                        1.31098e-05
x1.ibias.t47                          0.659187
x1.a_n1962_4406.t35                1.22371e-05
x1.vss.t152                        1.21098e-05
x1.vss.t151                        1.21098e-05
x1.a_n1962_4406.t74                 1.2236e-05
x1.vout.t17                        1.31101e-05
x1.ibias.t48                          0.659187
x1.a_n1962_4406.t34                1.22371e-05
x1.vss.t150                        1.21098e-05
x1.vss.t149                        1.21098e-05
x1.vss.t279                        1.21216e-05
x1.en.t32                                  1.7
x1.a_n1962_4406.t103               1.22367e-05
x1.a_n1962_4406.t33                1.22394e-05
x1.ibias.t49                          0.659187
x1.vout.t50                        1.31104e-05
x1.a_3868_4185.t73                 1.21245e-05
x1.en.t33                                  1.7
x1.vss.t278                        1.20926e-05
x1.vss.t274                        1.20926e-05
x1.en.t34                                  1.7
x1.a_3868_4185.t72                 1.21243e-05
x1.vss.t277                        1.20926e-05
x1.en.t35                                  1.7
x1.a_3868_4185.t71                 1.21243e-05
x1.a_n935_8875.t29                     1.47867
x1.a_n935_8875.t28                     1.47867
x1.vdd.t29                                 1.7
x1.vdd.t79                                 1.7
x1.vdd.t78                                 1.7
x1.a_n1962_4406.t32                1.22394e-05
x1.ibias.t50                          0.659187
x1.vout.t29                        1.31105e-05
x1.a_8862_4192.t21                  0.00145825
x1.en.t36                                  1.7
x1.vss.t276                        7.76459e-05
x1.a_3868_4185.t70                 1.21245e-05
x1.en.t37                                  1.7
x1.vss.t275                        1.20926e-05
x1.vss.t148                        1.20866e-05
x1.vss.t147                        1.20866e-05
x1.a_3868_4185.t51                 1.21249e-05
x1.vdd.t22                                 1.7
x1.a_n935_8875.t26                     1.47867
x1.a_n935_8875.t27                     1.47867
x1.vdd.t0                                  1.7
x1.vout.t23                        1.31104e-05
x1.ibias.t51                          0.659187
x1.a_n1962_4406.t31                1.22394e-05
x1.vss.t273                        1.20926e-05
x1.en.t38                                  1.7
x1.a_3868_4185.t69                 1.21245e-05
x1.a_3868_4185.t50                 1.21244e-05
x1.vss.t145                        1.20866e-05
x1.vss.t146                        1.20866e-05
x1.vss.t144                        5.79347e-05
x1.vss.t142                        5.80789e-05
x1.vss.t143                        7.28926e-05
x1.a_3868_4185.t49                 1.21244e-05
x1.vss.t140                        1.20866e-05
x1.vss.t141                        1.20866e-05
x1.vss.t272                        1.20926e-05
x1.en.t39                                  1.7
x1.a_3868_4185.t68                 1.21245e-05
x1.vss.t271                        1.21233e-05
x1.en.t40                                  1.7
x1.a_n1962_4406.t102               1.22367e-05
x1.a_3868_4185.t26                  1.2125e-05
x1.ibias.t52                          0.659187
x1.a_3329_8823.t14                 1.23209e-05
x1.a_3868_4185.t25                  1.2125e-05
x1.ibias.t53                          0.659187
x1.a_3329_8823.t24                 1.23209e-05
x1.a_3329_8823.t67                 1.23233e-05
x1.vn.t8                           1.31399e-05
x1.a_n935_8875.t7                      1.47867
x1.vss.t217                        1.38291e-05
x1.a_3868_4185.t24                 1.21246e-05
x1.ibias.t54                          0.659187
x1.a_3329_8823.t34                 1.23209e-05
x1.vdd.t77                                 1.7
x1.vdd.t76                                 1.7
x1.a_n1962_4406.t73                1.22381e-05
x1.vss.t138                        1.21098e-05
x1.vss.t139                        1.21098e-05
x1.a_n1962_4406.t72                1.22381e-05
x1.vss.t136                        1.21098e-05
x1.vss.t137                        1.21098e-05
x1.ibias.t3                           0.659068
x1.ibias.t2                           0.659179
x1.a_8862_4192.t2                   0.00168965
x1.vss.t216                        5.60875e-05
x1.vss.t270                        7.57709e-05
x1.en.t41                                  1.7
x1.a_8862_4192.t20                   0.0014587
x1.a_3868_4185.t23                 1.21246e-05
x1.ibias.t55                          0.659187
x1.a_3329_8823.t5                  1.23209e-05
x1.a_3329_8823.t9                  1.23209e-05
x1.ibias.t56                          0.659187
x1.a_3868_4185.t22                 1.21246e-05
x1.a_n1962_4406.t101               1.22366e-05
x1.en.t42                                  1.7
x1.vss.t269                        1.21198e-05
x1.a_n1962_4406.t100               1.22366e-05
x1.en.t43                                  1.7
x1.vss.t268                        1.21162e-05
x1.a_3329_8823.t13                 1.23209e-05
x1.ibias.t57                          0.659187
x1.a_3868_4185.t21                 1.21246e-05
x1.vdd.t75                                 1.7
x1.vdd.t73                                 1.7
x1.vdd.t74                                 1.7
x1.vdd.t40                                 1.7
x1.vss.t267                        9.25341e-05
x1.en.t44                                  1.7
x1.a_8862_4192.t19                  0.00145858
x1.a_8862_4192.t18                  0.00145877
x1.en.t45                                  1.7
x1.vss.t266                        0.000103884
x1.vdd.t101                                1.7
x1.a_n735_8972.t37                     1.47921
x1.vout.t83                        1.31534e-05
x1.a_n1962_4406.t30                1.22373e-05
x1.ibias.t58                          0.659187
x1.vout.t55                        1.31095e-05
x1.a_8862_4192.t1                   0.00168965
x1.ibias.t0                           0.659176
x1.ibias.t1                           0.658973
x1.a_3329_8823.t1                  1.23208e-05
x1.ibias.t59                          0.659187
x1.a_3868_4185.t20                  1.2125e-05
x1.vdd.t109                                1.7
x1.a_n935_8875.t36                     1.47867
x1.a_n735_8972.t26                     1.47921
x1.a_8862_4192.t17                  0.00145853
x1.en.t46                                  1.7
x1.vss.t265                         7.2972e-05
x1.vss.t135                        5.55029e-05
x1.vss.t133                        5.54007e-05
x1.vss.t134                        6.99972e-05
x1.vout.t81                        1.31528e-05
x1.a_n735_8972.t38                     1.47921
x1.vdd.t99                                 1.7
x1.vss.t128                        1.20866e-05
x1.vss.t127                        1.20866e-05
x1.a_3868_4185.t48                 1.21244e-05
x1.a_3868_4185.t47                 1.21249e-05
x1.vss.t131                        1.20866e-05
x1.vss.t132                        1.20866e-05
x1.a_n935_8875.t25                     1.47867
x1.a_n935_8875.t24                     1.47867
x1.vdd.t31                                 1.7
x1.a_3868_4185.t19                  1.2125e-05
x1.ibias.t60                          0.659187
x1.a_3329_8823.t25                 1.23208e-05
x1.a_3329_8823.t52                  1.2323e-05
x1.vss.t125                        1.22028e-05
x1.vss.t126                        1.22028e-05
x1.vss.t248                        7.29418e-05
x1.en.t47                                  1.7
x1.a_8862_4192.t16                  0.00145806
x1.a_3329_8823.t6                  1.23208e-05
x1.ibias.t61                          0.659187
x1.a_3868_4185.t18                 1.21252e-05
x1.vdd.t72                                 1.7
x1.vdd.t70                                 1.7
x1.a_3868_4185.t67                 1.21245e-05
x1.en.t48                                  1.7
x1.vss.t264                        1.20926e-05
x1.vout.t63                        1.31536e-05
x1.a_n735_8972.t39                     1.47921
x1.vdd.t14                                 1.7
x1.vout.t68                        1.31523e-05
x1.a_n735_8972.t40                     1.47921
x1.vdd.t20                                 1.7
x1.vdd.t2                                  1.7
x1.a_n1962_4406.t99                1.22366e-05
x1.en.t49                                  1.7
x1.vss.t263                         1.2118e-05
x1.a_8862_4192.t15                  0.00145811
x1.en.t50                                  1.7
x1.vss.t262                         9.1602e-05
x1.vss.t124                        1.22029e-05
x1.vss.t123                        1.22029e-05
x1.a_3329_8823.t51                 1.23231e-05
x1.a_n1962_4406.t98                1.22365e-05
x1.en.t51                                  1.7
x1.vss.t261                        1.21144e-05
x1.vdd.t69                                 1.7
x1.vdd.t67                                 1.7
x1.vdd.t68                                 1.7
x1.a_3329_8823.t58                 1.23231e-05
x1.vp.t6                                     0
x1.a_n735_8972.t17                     1.47921
x1.vss.t122                        1.21098e-05
x1.vss.t121                        1.21098e-05
x1.a_n1962_4406.t71                1.22382e-05
x1.a_3329_8823.t79                 1.23231e-05
x1.vn.t9                           1.31399e-05
x1.a_n935_8875.t6                      1.47867
x1.vout.t40                        1.31098e-05
x1.ibias.t62                          0.659187
x1.a_n1962_4406.t29                1.22384e-05
x1.a_n935_8875.t5                      1.47867
x1.vn.t10                          1.31399e-05
x1.a_3329_8823.t70                 1.23233e-05
x1.vdd.t66                                 1.7
x1.vdd.t64                                 1.7
x1.vdd.t65                                 1.7
x1.a_n735_8972.t5                      1.47921
x1.a_n935_8875.t37                     1.47867
x1.vdd.t28                                 1.7
x1.vout.t66                        1.31531e-05
x1.a_n735_8972.t41                     1.47921
x1.vdd.t18                                 1.7
x1.vss.t120                        1.21098e-05
x1.vss.t119                        1.21098e-05
x1.a_n1962_4406.t97                1.22358e-05
x1.en.t52                                  1.7
x1.vss.t260                        1.21249e-05
x1.a_n1962_4406.t28                1.22371e-05
x1.ibias.t63                          0.659187
x1.vout.t15                        1.31098e-05
x1.vss.t118                        1.21098e-05
x1.vss.t117                        1.21098e-05
x1.vdd.t4                                  1.7
x1.a_n935_8875.t38                     1.47867
x1.a_n735_8972.t0                      1.47921
x1.a_n735_8972.t16                     1.47921
x1.vp.t7                                     0
x1.a_3329_8823.t74                 1.23234e-05
x1.a_3329_8823.t75                 1.23233e-05
x1.vp.t8                                     0
x1.a_n735_8972.t15                     1.47921
x1.a_n1962_4406.t96                1.22368e-05
x1.en.t53                                  1.7
x1.vss.t259                        1.21267e-05
x1.vdd.t63                                 1.7
x1.vdd.t61                                 1.7
x1.vdd.t62                                 1.7
x1.vss.t116                        1.21098e-05
x1.vss.t115                        1.21098e-05
x1.a_n1962_4406.t70                1.22382e-05
x1.a_n1962_4406.t27                1.22372e-05
x1.ibias.t64                          0.659187
x1.vout.t18                        1.31095e-05
x1.vss.t258                         1.2125e-05
x1.en.t54                                  1.7
x1.a_n1962_4406.t95                1.22367e-05
x1.vout.t10                        1.31097e-05
x1.ibias.t65                          0.659187
x1.a_n1962_4406.t26                1.22372e-05
x1.a_n735_8972.t14                     1.47921
x1.vp.t9                                     0
x1.a_3329_8823.t78                 1.23231e-05
x1.a_3329_8823.t59                 1.23234e-05
x1.vp.t10                                    0
x1.a_n735_8972.t13                     1.47921
x1.a_n735_8972.t12                     1.47921
x1.vp.t11                                    0
x1.a_3329_8823.t69                 1.23231e-05
x1.a_n1962_4406.t69                 1.2236e-05
x1.vss.t113                        1.21098e-05
x1.vss.t114                        1.21098e-05
x1.vss.t257                        1.21216e-05
x1.en.t55                                  1.7
x1.a_n1962_4406.t94                1.22366e-05
x1.a_n1962_4406.t68                1.22381e-05
x1.vss.t111                        1.21098e-05
x1.vss.t112                        1.21098e-05
x1.vout.t51                        1.31095e-05
x1.ibias.t66                          0.659187
x1.a_n1962_4406.t25                1.22373e-05
x1.vout.t30                        1.31104e-05
x1.ibias.t67                          0.659187
x1.a_n1962_4406.t24                1.22394e-05
x1.vout.t24                        1.31105e-05
x1.ibias.t68                          0.659187
x1.a_n1962_4406.t23                1.22384e-05
x1.vss.t256                        0.000104362
x1.en.t56                                  1.7
x1.a_8862_4192.t14                  0.00145971
x1.a_8862_4192.t13                  0.00145963
x1.en.t57                                  1.7
x1.vss.t255                         7.6546e-05
x1.vdd.t21                                 1.7
x1.a_n935_8875.t22                     1.47867
x1.a_n935_8875.t23                     1.47867
x1.a_3329_8823.t50                  1.2323e-05
x1.vss.t109                        1.22028e-05
x1.vss.t110                        1.22028e-05
x1.vout.t56                        1.31095e-05
x1.ibias.t69                          0.659187
x1.a_n1962_4406.t22                1.22394e-05
x1.a_n1962_4406.t21                1.22384e-05
x1.ibias.t70                          0.659187
x1.vout.t20                        1.31098e-05
x1.a_3329_8823.t16                 1.23209e-05
x1.ibias.t71                          0.659187
x1.a_3868_4185.t17                 1.21252e-05
x1.vss.t108                        1.20866e-05
x1.vss.t107                        1.20866e-05
x1.a_3868_4185.t46                 1.21249e-05
x1.vout.t79                        1.31532e-05
x1.a_n735_8972.t42                     1.47921
x1.vdd.t38                                 1.7
x1.vout.t34                        1.31096e-05
x1.ibias.t72                          0.659187
x1.a_n1962_4406.t20                1.22372e-05
x1.a_n1962_4406.t19                1.22384e-05
x1.ibias.t73                          0.659187
x1.vout.t11                          1.311e-05
x1.vss.t106                        1.20866e-05
x1.vss.t105                        1.20866e-05
x1.a_3868_4185.t45                 1.21249e-05
x1.vss.t104                        1.22028e-05
x1.vss.t101                        1.22028e-05
x1.vss.t103                         1.2203e-05
x1.vss.t102                        1.29967e-05
x1.a_n1962_4406.t18                1.22372e-05
x1.ibias.t74                          0.659187
x1.vout.t31                        1.31097e-05
x1.vss.t100                        7.06523e-05
x1.vss.t99                         6.33183e-05
x1.vss.t254                        7.59711e-05
x1.en.t58                                  1.7
x1.a_8862_4192.t12                  0.00145823
x1.vout.t8                         1.31098e-05
x1.ibias.t75                          0.659187
x1.a_n1962_4406.t17                1.22371e-05
x1.a_n1962_4406.t16                1.22372e-05
x1.ibias.t76                          0.659187
x1.vout.t32                        1.31099e-05
x1.a_n1962_4406.t15                1.22372e-05
x1.ibias.t77                          0.659187
x1.vout.t4                         1.31103e-05
x1.a_3868_4185.t16                 1.21252e-05
x1.ibias.t78                          0.659187
x1.a_3329_8823.t21                 1.23209e-05
x1.vss.t98                         6.22957e-05
x1.vss.t97                         6.22954e-05
x1.ibias.t9                           0.659089
x1.a_n1962_4406.t93                1.22366e-05
x1.en.t59                                  1.7
x1.vss.t253                        1.21181e-05
x1.vout.t19                          1.311e-05
x1.ibias.t79                          0.659187
x1.a_n1962_4406.t14                1.22371e-05
x1.a_n1962_4406.t92                1.22366e-05
x1.en.t60                                  1.7
x1.vss.t252                        1.21144e-05
x1.a_3868_4185.t15                 1.21246e-05
x1.ibias.t80                          0.659187
x1.a_3329_8823.t36                 1.23209e-05
x1.vss.t251                        9.30163e-05
x1.en.t61                                  1.7
x1.a_8862_4192.t11                  0.00145952
x1.vdd.t60                                 1.7
x1.vdd.t58                                 1.7
x1.vdd.t59                                 1.7
x1.a_n735_8972.t11                     1.47921
x1.vp.t12                                    0
x1.a_3329_8823.t40                 1.23233e-05
x1.vss.t250                         1.2118e-05
x1.en.t62                                  1.7
x1.a_n1962_4406.t91                1.22366e-05
x1.vss.t96                         1.21098e-05
x1.vss.t95                         1.21098e-05
x1.a_8862_4192.t10                   0.0014583
x1.en.t63                                  1.7
x1.vss.t249                        0.000102987
x1.a_3868_4185.t14                 1.21246e-05
x1.ibias.t81                          0.659187
x1.a_3329_8823.t32                 1.23209e-05
x1.vss.t247                        1.21144e-05
x1.en.t64                                  1.7
x1.a_n1962_4406.t90                1.22366e-05
x1.a_3329_8823.t23                 1.23209e-05
x1.ibias.t82                          0.659187
x1.a_3868_4185.t13                 1.21252e-05
x1.a_8862_4192.t9                   0.00145947
x1.en.t65                                  1.7
x1.vss.t246                        7.36578e-05
x1.vss.t245                        1.20926e-05
x1.en.t66                                  1.7
x1.a_3868_4185.t66                 1.21243e-05
x1.a_n735_8972.t1                      1.47921
x1.a_n935_8875.t39                     1.47867
x1.vdd.t9                                  1.7
x1.vdd.t35                                 1.7
x1.a_n735_8972.t43                     1.47921
x1.vout.t76                        1.31533e-05
x1.a_n1962_4406.t13                1.22372e-05
x1.ibias.t83                          0.659187
x1.vout.t43                        1.31096e-05
x1.a_3329_8823.t45                 1.23233e-05
x1.vn.t11                          1.31399e-05
x1.a_n935_8875.t4                      1.47867
x1.vout.t88                        1.31526e-05
x1.a_n735_8972.t44                     1.47921
x1.vdd.t108                                1.7
x1.vss.t244                        1.21198e-05
x1.en.t67                                  1.7
x1.a_n1962_4406.t89                1.22366e-05
x1.a_3868_4185.t12                 1.21252e-05
x1.ibias.t84                          0.659187
x1.a_3329_8823.t10                 1.23209e-05
x1.vss.t94                         1.20866e-05
x1.vss.t93                         1.20866e-05
x1.a_3868_4185.t44                 1.21249e-05
x1.a_3868_4185.t43                 1.21244e-05
x1.vss.t91                         1.20866e-05
x1.vss.t92                         1.20866e-05
x1.a_3329_8823.t7                  1.23208e-05
x1.ibias.t85                          0.659187
x1.a_3868_4185.t11                 1.21246e-05
x1.vdd.t10                                 1.7
x1.a_n935_8875.t40                     1.47867
x1.a_n735_8972.t2                      1.47921
x1.vss.t90                         1.22031e-05
x1.vss.t88                         1.22029e-05
x1.a_n935_8875.t17                     1.47867
x1.a_n935_8875.t3                      1.47867
x1.vn.t12                          1.31399e-05
x1.a_3329_8823.t57                  1.2323e-05
x1.vdd.t57                                 1.7
x1.vdd.t55                                 1.7
x1.vdd.t56                                 1.7
x1.vss.t243                        1.21162e-05
x1.en.t68                                  1.7
x1.a_n1962_4406.t88                1.22366e-05
x1.a_3868_4185.t10                  1.2125e-05
x1.ibias.t86                          0.659187
x1.a_3329_8823.t3                  1.23208e-05
x1.vss.t87                         6.78224e-05
x1.vss.t86                         6.04767e-05
x1.vss.t242                        7.35225e-05
x1.en.t69                                  1.7
x1.a_8862_4192.t8                   0.00145854
x1.a_3329_8823.t29                 1.23208e-05
x1.ibias.t87                          0.659187
x1.a_3868_4185.t9                  1.21246e-05
x1.vout.t74                        1.31533e-05
x1.a_n735_8972.t45                     1.47921
x1.vdd.t32                                 1.7
x1.a_3868_4185.t65                 1.21245e-05
x1.en.t70                                  1.7
x1.vss.t241                        1.20926e-05
x1.vdd.t102                                1.7
x1.a_n735_8972.t46                     1.47921
x1.vout.t84                        1.31523e-05
x1.a_8862_4192.t7                   0.00145859
x1.en.t71                                  1.7
x1.vss.t240                        9.25341e-05
x1.vss.t239                        1.20926e-05
x1.en.t72                                  1.7
x1.a_3868_4185.t64                 1.21245e-05
x1.vdd.t12                                 1.7
x1.a_n935_8875.t20                     1.47867
x1.a_n935_8875.t21                     1.47867
x1.a_n935_8875.t2                      1.47867
x1.vn.t13                          1.31399e-05
x1.a_3329_8823.t68                 1.23234e-05
x1.vdd.t54                                 1.7
x1.vdd.t53                                 1.7
x1.a_n935_8875.t16                     1.47867
x1.vss.t83                         1.22028e-05
x1.vss.t85                         1.22032e-05
x1.vss.t82                         1.21098e-05
x1.vss.t81                         1.21098e-05
x1.vout.t85                        1.31525e-05
x1.a_n735_8972.t47                     1.47921
x1.vdd.t104                                1.7
x1.vss.t80                         1.21098e-05
x1.vss.t79                         1.21098e-05
x1.a_n1962_4406.t67                1.22361e-05
x1.a_3868_4185.t8                  1.21246e-05
x1.ibias.t88                          0.659187
x1.a_3329_8823.t26                 1.23209e-05
x1.vss.t78                         1.21098e-05
x1.vss.t76                         1.21098e-05
x1.vdd.t107                                1.7
x1.a_n735_8972.t48                     1.47921
x1.vout.t87                        1.31531e-05
x1.a_n1962_4406.t66                1.22382e-05
x1.vss.t74                         1.21098e-05
x1.vss.t75                         1.21098e-05
x1.vss.t73                         1.22028e-05
x1.vss.t71                         1.22028e-05
x1.vss.t72                         1.22031e-05
x1.vdd.t24                                 1.7
x1.a_n735_8972.t49                     1.47921
x1.vout.t70                        1.31532e-05
x1.vss.t238                        1.21267e-05
x1.en.t73                                  1.7
x1.a_n1962_4406.t87                1.22367e-05
x1.vss.t70                         1.21098e-05
x1.vss.t68                         1.21098e-05
x1.vss.t69                         1.21098e-05
x1.vout.t72                        1.31519e-05
x1.a_n735_8972.t50                     1.47921
x1.vdd.t26                                 1.7
x1.vout.t41                        1.31095e-05
x1.ibias.t89                          0.659187
x1.a_n1962_4406.t12                1.22384e-05
x1.a_n1962_4406.t65                1.22382e-05
x1.vss.t66                         1.21098e-05
x1.vss.t67                         1.21098e-05
x1.a_n1962_4406.t86                1.22367e-05
x1.en.t74                                  1.7
x1.vss.t237                        1.21233e-05
x1.vss.t65                         1.22029e-05
x1.vss.t63                         1.22029e-05
x1.a_3329_8823.t49                 1.23231e-05
x1.a_3329_8823.t48                  1.2323e-05
x1.vss.t60                         1.22028e-05
x1.vss.t62                         1.22028e-05
x1.a_n1962_4406.t11                1.22372e-05
x1.ibias.t90                          0.659187
x1.vout.t47                        1.31096e-05
x1.vss.t59                         1.21098e-05
x1.vss.t58                         1.21098e-05
x1.a_n1962_4406.t64                1.22382e-05
x1.vdd.t1                                  1.7
x1.a_n935_8875.t18                     1.47867
x1.a_n935_8875.t19                     1.47867
x1.a_n735_8972.t10                     1.47921
x1.vp.t13                                    0
x1.a_3329_8823.t41                 1.23234e-05
x1.a_n935_8875.t1                      1.47867
x1.vn.t14                          1.31399e-05
x1.a_3329_8823.t72                 1.23232e-05
x1.vss.t312                         1.3667e-05
x1.vdd.t52                                 1.7
x1.vdd.t50                                 1.7
x1.vdd.t51                                 1.7
x1.vout.t44                        1.31096e-05
x1.ibias.t91                          0.659187
x1.a_n1962_4406.t10                1.22372e-05
x1.vss.t57                         1.21098e-05
x1.vss.t55                         1.21098e-05
x1.a_n1962_4406.t63                1.22382e-05
x1.a_3329_8823.t30                 1.23209e-05
x1.ibias.t92                          0.659187
x1.a_3868_4185.t7                   1.2125e-05
x1.vdd.t49                                 1.7
x1.vdd.t46                                 1.7
x1.vdd.t48                                 1.7
x1.vout.t82                        1.31532e-05
x1.a_n735_8972.t51                     1.47921
x1.vdd.t100                                1.7
x1.vout.t36                          1.311e-05
x1.ibias.t93                          0.659187
x1.a_n1962_4406.t9                 1.22384e-05
x1.vout.t37                        1.31103e-05
x1.ibias.t94                          0.659187
x1.a_n1962_4406.t8                 1.22384e-05
x1.a_3329_8823.t22                 1.23209e-05
x1.ibias.t95                          0.659187
x1.a_3868_4185.t6                   1.2125e-05
x1.a_3329_8823.t60                 1.23232e-05
x1.vp.t14                                    0
x1.a_n735_8972.t9                      1.47921
x1.vss.t213                         1.3497e-05
x1.a_n1962_4406.t85                1.22357e-05
x1.en.t75                                  1.7
x1.vss.t236                        1.21215e-05
x1.a_9909_7861.t1                      1.47921
x1.vout.t78                        1.31258e-05
x1.a_3868_4185.t42                 1.21249e-05
x1.vss.t53                         1.20866e-05
x1.vss.t54                         1.20866e-05
x1.vout.t80                        1.31534e-05
x1.a_n735_8972.t52                     1.47921
x1.vdd.t98                                 1.7
x1.a_n1962_4406.t7                 1.22371e-05
x1.ibias.t96                          0.659187
x1.vout.t12                          1.311e-05
x1.a_n1962_4406.t6                 1.22371e-05
x1.ibias.t97                          0.659187
x1.vout.t5                         1.31103e-05
x1.a_3868_4185.t63                 1.21243e-05
x1.en.t76                                  1.7
x1.vss.t235                        1.20926e-05
x1.vss.t234                        1.20926e-05
x1.en.t77                                  1.7
x1.a_3868_4185.t62                 1.21245e-05
x1.vss.t233                        1.20926e-05
x1.en.t78                                  1.7
x1.a_3868_4185.t61                 1.21245e-05
x1.a_3868_4185.t41                 1.21249e-05
x1.vss.t50                         1.20866e-05
x1.vss.t52                         1.20866e-05
x1.a_n735_8972.t6                      1.47921
x1.a_n935_8875.t41                     1.47867
x1.vdd.t34                                 1.7
x1.a_n735_8972.t3                      1.47921
x1.vss.t47                         1.22028e-05
x1.vss.t49                         1.22031e-05
x1.vss.t48                         1.32952e-05
x1.a_n1962_4406.t84                1.22367e-05
x1.en.t79                                  1.7
x1.vss.t223                        1.21266e-05
x1.vss.t232                        1.21215e-05
x1.en.t80                                  1.7
x1.a_n1962_4406.t83                1.22366e-05
x1.vout.t1                         1.31099e-05
x1.ibias.t98                          0.659187
x1.a_n1962_4406.t5                 1.22372e-05
x1.vss.t46                         1.21098e-05
x1.vss.t44                         1.21098e-05
x1.vss.t43                         7.08509e-05
x1.vss.t42                         6.35057e-05
x1.a_3868_4185.t60                 1.21243e-05
x1.en.t81                                  1.7
x1.vss.t231                        1.20926e-05
x1.a_3329_8823.t76                 1.23234e-05
x1.vp.t15                                    0
x1.a_n735_8972.t8                      1.47921
x1.a_n1962_4406.t62                 1.2236e-05
x1.vss.t40                         1.21098e-05
x1.vss.t41                         1.21098e-05
x1.vss.t228                        1.21181e-05
x1.en.t82                                  1.7
x1.a_n1962_4406.t82                1.22365e-05
x1.vout.t7                         1.31103e-05
x1.ibias.t99                          0.659187
x1.a_n1962_4406.t4                 1.22372e-05
x1.a_n1962_4406.t61                 1.2236e-05
x1.vss.t37                         1.21098e-05
x1.vss.t39                         1.21098e-05
x1.vss.t230                        1.21144e-05
x1.en.t83                                  1.7
x1.a_n1962_4406.t81                1.22365e-05
x1.vss.t229                        1.20926e-05
x1.en.t84                                  1.7
x1.a_3868_4185.t59                 1.21245e-05
x1.vss.t227                        7.54931e-05
x1.en.t85                                  1.7
x1.a_8862_4192.t6                   0.00145962
x1.vss.t226                        1.20926e-05
x1.en.t86                                  1.7
x1.a_3868_4185.t58                 1.21245e-05
x1.vss.t36                         1.21098e-05
x1.vss.t35                         1.21098e-05
x1.a_3868_4185.t5                  1.21246e-05
x1.ibias.t100                         0.659187
x1.a_3329_8823.t15                 1.23209e-05
x1.a_3868_4185.t4                  1.21246e-05
x1.ibias.t101                         0.659187
x1.a_3329_8823.t37                 1.23209e-05
x1.a_n1962_4406.t3                 1.22394e-05
x1.ibias.t102                         0.659187
x1.vout.t48                        1.31095e-05
x1.a_8862_4192.t5                    0.0014597
x1.en.t87                                  1.7
x1.vss.t225                        0.000104362
x1.vout.t60                        1.31529e-05
x1.a_n735_8972.t53                     1.47921
x1.vdd.t3                                  1.7
x1.vdd.t6                                  1.7
x1.a_n735_8972.t54                     1.47921
x1.vout.t61                        1.31526e-05
x1.a_n1962_4406.t80                1.22367e-05
x1.en.t88                                  1.7
x1.vss.t224                         1.2125e-05
x1.a_3329_8823.t33                 1.23209e-05
x1.ibias.t103                         0.659187
x1.a_3868_4185.t3                  1.21246e-05
x1.ibias.t8                           0.659084
x1.vss.t33                         5.67389e-05
x1.vss.t34                         5.67392e-05
x1.vss.t32                         5.86467e-05
x1.vss.t29                         5.86981e-05
x1.vss.t31                          7.3404e-05
x1.vout.t33                        1.31097e-05
x1.ibias.t104                         0.659187
x1.a_n1962_4406.t2                 1.22372e-05
x1.a_3329_8823.t20                 1.23209e-05
x1.ibias.t105                         0.659187
x1.a_3868_4185.t2                  1.21246e-05
x1.vss.t28                         1.20866e-05
x1.vss.t26                         1.20866e-05
x1.a_3868_4185.t40                 1.21249e-05
x1.vdd.t45                                 1.7
x1.vdd.t43                                 1.7
x1.vdd.t42                                 1.7
x1.vdd.t39                                 1.7
x1.vdd.t41                                 1.7
x1.a_3868_4185.t1                  1.21252e-05
x1.ibias.t106                         0.659187
x1.a_3329_8823.t31                 1.23209e-05
x1.a_3868_4185.t57                 1.21245e-05
x1.en.t89                                  1.7
x1.vss.t222                        1.20926e-05
x1.a_3329_8823.t19                 1.23208e-05
x1.ibias.t107                         0.659187
x1.a_3868_4185.t0                  1.21252e-05
x1.a_3868_4185.t56                 1.21245e-05
x1.en.t90                                  1.7
x1.vss.t221                        1.20926e-05
x1.a_n1962_4406.t1                 1.22371e-05
x1.ibias.t108                         0.659187
x1.vout.t27                        1.31099e-05
x1.vss.t25                         1.21098e-05
x1.vss.t24                         1.21098e-05
x1.a_n1962_4406.t60                1.22382e-05
x1.vss.t23                          6.8401e-05
x1.vss.t21                         6.10559e-05
x1.vss.t220                        7.40012e-05
x1.en.t91                                  1.7
x1.a_8862_4192.t4                   0.00145948
x1.a_n935_8875.t0                      1.47867
x1.vn.t15                          1.31399e-05
x1.a_3329_8823.t44                 1.23234e-05
x1.a_n1962_4406.t0                 1.22384e-05
x1.ibias.t109                         0.659187
x1.vout.t59                        1.31102e-05
x1.en.n0                                   1.7
x1.en.n3                                   1.7
x1.en.n7                                   1.7
x1.en.n11                                  1.7
x1.en.n15                                  1.7
x1.en.n38                                  1.7
x1.en.n41                                  1.7
x1.en.n44                                  1.7
x1.en.n50                                  1.7
x1.en.n56                                  1.7
x1.en.n62                                  1.7
x1.en.n68                                  1.7
x1.en.n74                                  1.7
x1.en.n80                                  1.7
x1.en.n19                                  1.7
x1.en.n22                                  1.7
x1.en.n26                                  1.7
x1.en.n30                                  1.7
x1.en.n34                                  1.7
x1.en.n87                                  1.7
x1.en.n89                                  1.7
x1.en.n88                                  1.7
x1.en.n2                                   1.7
x1.en.n1                                   1.7
x1.en.n5                                   1.7
x1.en.n4                                   1.7
x1.en.n9                                   1.7
x1.en.n8                                   1.7
x1.en.n13                                  1.7
x1.en.n12                                  1.7
x1.en.n17                                  1.7
x1.en.n16                                  1.7
x1.en.n39                                  1.7
x1.en.n40                                  1.7
x1.en.n42                                  1.7
x1.en.n43                                  1.7
x1.en.n45                                  1.7
x1.en.n46                                  1.7
x1.en.n47                                  1.7
x1.en.n48                                  1.7
x1.en.n51                                  1.7
x1.en.n52                                  1.7
x1.en.n53                                  1.7
x1.en.n54                                  1.7
x1.en.n57                                  1.7
x1.en.n58                                  1.7
x1.en.n59                                  1.7
x1.en.n60                                  1.7
x1.en.n63                                  1.7
x1.en.n64                                  1.7
x1.en.n65                                  1.7
x1.en.n66                                  1.7
x1.en.n69                                  1.7
x1.en.n70                                  1.7
x1.en.n71                                  1.7
x1.en.n72                                  1.7
x1.en.n75                                  1.7
x1.en.n76                                  1.7
x1.en.n77                                  1.7
x1.en.n78                                  1.7
x1.en.n81                                  1.7
x1.en.n82                                  1.7
x1.en.n20                                  1.7
x1.en.n21                                  1.7
x1.en.n23                                  1.7
x1.en.n24                                  1.7
x1.en.n27                                  1.7
x1.en.n28                                  1.7
x1.en.n31                                  1.7
x1.en.n32                                  1.7
x1.en.n35                                  1.7
x1.en.n36                                  1.7
x1.en.n84                                  1.7
x1.en.n83                                  1.7
x1.en.n90                                  1.7
x1.en.n49                                  1.7
x1.en.n25                                  1.7
x1.en.n29                                  1.7
x1.en.n37                                  1.7
x1.en.n6                                   1.7
x1.en.n61                                  1.7
x1.en.n73                                  1.7
x1.en.n10                                  1.7
x1.en.n14                                  1.7
x1.en.n18                                  1.7
x1.en.n33                                  1.7
x1.en.n55                                  1.7
x1.en.n67                                  1.7
x1.en.n79                                  1.7
x1.en.n86                                  1.7
x1.en.n85                                  1.7
x1.vss.n1977                       1.42915e-05
x1.vss.n1888                       5.86302e-05
x1.vss.n2092                       1.29058e-05
x1.vss.n1496                       1.22227e-05
x1.vss.n2383                       5.84253e-05
x1.vss.n123                        5.88123e-05
x1.vss.n1376                       1.22215e-05
x1.vss.n719                        1.22221e-05
x1.vss.n1211                       1.21974e-05
x1.vss.n825                        1.21896e-05
x1.vss.n2192                       1.43033e-05
x1.vss.n243                        1.43841e-05
x1.vss.n2109                       1.27484e-05
x1.vss.n668                        1.25822e-05
x1.vss.n2129                       1.35063e-05
x1.vss.n317                        1.34266e-05
x1.vss.n661                        1.34236e-05
x1.vss.n314                        1.35019e-05
x1.vss.n2337                       4.98525e-05
x1.vss.n165                        4.89496e-05
x1.vss.n1494                       1.22221e-05
x1.vss.n722                        1.22215e-05
x1.vss.n1905                       1.42104e-05
x1.vss.n1529                         1.412e-05
x1.vss.n187                        4.89996e-05
x1.vss.n167                        4.99032e-05
x1.vss.n2224                       1.59921e-05
x1.vss.n213                        1.63411e-05
x1.vss.n590                        1.48658e-05
x1.vss.n211                        1.49639e-05
x1.vss.n1207                       1.22286e-05
x1.vss.n826                        1.22347e-05
x1.vss.n2090                       1.30013e-05
x1.vss.n1499                       1.31044e-05
x1.vss.n1886                       5.87025e-05
x1.vss.n1534                       5.87433e-05
x1.vss.n1879                       5.87025e-05
x1.vss.n1878                       5.87433e-05
x1.vss.n1639                       5.78608e-05
x1.vss.n127                        5.74357e-05
x1.vss.n524                        1.65951e-05
x1.vss.n523                        1.65853e-05
x1.vss.n568                        1.61682e-05
x1.vss.n567                        1.62848e-05
x1.vss.n1663                       5.83392e-05
x1.vss.n1662                       5.83106e-05
x1.vss.n1707                       5.86551e-05
x1.vss.n1706                       5.85957e-05
x1.vss.n2335                        4.8102e-05
x1.vss.n2226                        1.6658e-05
x1.vss.n164                        4.96215e-05
x1.vss.n2333                       4.87949e-05
x1.vss.n2332                       4.94168e-05
x1.vss.n2331                       4.92393e-05
x1.vss.n2227                       4.86881e-05
x1.vss.n2330                        4.9086e-05
x1.vss.n2329                       4.86046e-05
x1.vss.n2328                       4.89536e-05
x1.vss.n2327                       4.85356e-05
x1.vss.n2326                       4.84771e-05
x1.vss.n2325                       4.88396e-05
x1.vss.n2324                       4.87415e-05
x1.vss.n2323                        4.8427e-05
x1.vss.n2322                       4.83841e-05
x1.vss.n2321                       4.86571e-05
x1.vss.n2320                       4.85847e-05
x1.vss.n2319                       4.83472e-05
x1.vss.n2318                       4.83157e-05
x1.vss.n2317                       4.85226e-05
x1.vss.n2316                       4.84696e-05
x1.vss.n2315                       4.82888e-05
x1.vss.n2314                       4.82659e-05
x1.vss.n2313                       4.84245e-05
x1.vss.n2312                       4.83864e-05
x1.vss.n2311                       4.82465e-05
x1.vss.n2310                       4.82302e-05
x1.vss.n2309                       4.83544e-05
x1.vss.n2308                       4.83278e-05
x1.vss.n2307                       4.82167e-05
x1.vss.n2306                       4.82057e-05
x1.vss.n2305                        4.8306e-05
x1.vss.n2304                       4.82887e-05
x1.vss.n2303                       4.81969e-05
x1.vss.n2302                       4.81901e-05
x1.vss.n2301                       4.82754e-05
x1.vss.n2300                       4.82658e-05
x1.vss.n2299                       4.81852e-05
x1.vss.n2298                       4.81821e-05
x1.vss.n2297                       4.82598e-05
x1.vss.n2296                       4.82571e-05
x1.vss.n2295                       4.81808e-05
x1.vss.n2294                       4.81811e-05
x1.vss.n2293                       4.82578e-05
x1.vss.n2292                       4.82618e-05
x1.vss.n2291                       4.81832e-05
x1.vss.n2290                        4.8187e-05
x1.vss.n2289                       4.82693e-05
x1.vss.n2288                       4.82804e-05
x1.vss.n2287                       4.81926e-05
x1.vss.n2286                       4.82002e-05
x1.vss.n2285                       4.82953e-05
x1.vss.n2284                       4.83144e-05
x1.vss.n2283                       4.82099e-05
x1.vss.n2282                       4.82219e-05
x1.vss.n2281                        4.8338e-05
x1.vss.n2280                       4.83667e-05
x1.vss.n2279                       4.82365e-05
x1.vss.n2278                        4.8254e-05
x1.vss.n2277                       4.84012e-05
x1.vss.n2276                        4.8442e-05
x1.vss.n2275                       4.82748e-05
x1.vss.n2274                       4.82992e-05
x1.vss.n2273                       4.84902e-05
x1.vss.n2272                       4.85467e-05
x1.vss.n2271                        4.8328e-05
x1.vss.n2270                       4.83616e-05
x1.vss.n2269                       4.86129e-05
x1.vss.n2268                         4.869e-05
x1.vss.n2267                       4.84008e-05
x1.vss.n2266                       4.84465e-05
x1.vss.n2265                       4.87797e-05
x1.vss.n2264                       4.88841e-05
x1.vss.n2263                       4.84997e-05
x1.vss.n2262                       4.85619e-05
x1.vss.n2261                       4.90053e-05
x1.vss.n2260                       4.91459e-05
x1.vss.n2259                       4.86352e-05
x1.vss.n2258                       4.87236e-05
x1.vss.n2257                       4.93088e-05
x1.vss.n2256                       4.94973e-05
x1.vss.n2255                       4.88367e-05
x1.vss.n2254                       4.97148e-05
x1.vss.n2253                       5.05012e-05
x1.vss.n2336                       4.91834e-05
x1.vss.n2252                       5.07761e-05
x1.vss.n2251                       5.02711e-05
x1.vss.n166                        4.97353e-05
x1.vss.n2250                       5.10732e-05
x1.vss.n162                        5.06597e-05
x1.vss.n2342                       5.02428e-05
x1.vss.n2249                       5.13883e-05
x1.vss.n161                        5.10507e-05
x1.vss.n2343                       5.07167e-05
x1.vss.n2248                       5.17181e-05
x1.vss.n160                        5.14394e-05
x1.vss.n2344                        5.1165e-05
x1.vss.n2247                       5.20602e-05
x1.vss.n2246                        5.1825e-05
x1.vss.n159                        5.15934e-05
x1.vss.n2245                       5.24126e-05
x1.vss.n155                        5.22083e-05
x1.vss.n2350                       5.20064e-05
x1.vss.n2244                       5.27739e-05
x1.vss.n154                          5.259e-05
x1.vss.n2351                       5.24072e-05
x1.vss.n2243                       5.31433e-05
x1.vss.n153                        5.29709e-05
x1.vss.n2352                       5.27987e-05
x1.vss.n2242                       5.35201e-05
x1.vss.n2241                       5.33519e-05
x1.vss.n152                        5.31826e-05
x1.vss.n2240                       5.39044e-05
x1.vss.n148                        5.37334e-05
x1.vss.n2358                       5.35605e-05
x1.vss.n2239                       5.42961e-05
x1.vss.n147                        5.41162e-05
x1.vss.n2359                       5.39334e-05
x1.vss.n2238                       5.46958e-05
x1.vss.n146                        5.45008e-05
x1.vss.n2360                       5.43022e-05
x1.vss.n2237                       5.51039e-05
x1.vss.n2236                       5.48879e-05
x1.vss.n145                        5.46674e-05
x1.vss.n2235                       5.55215e-05
x1.vss.n141                         5.5278e-05
x1.vss.n2366                        5.5029e-05
x1.vss.n2234                       5.59498e-05
x1.vss.n140                        5.56717e-05
x1.vss.n2367                       5.53872e-05
x1.vss.n2233                       5.63902e-05
x1.vss.n139                        5.60696e-05
x1.vss.n2368                       5.57419e-05
x1.vss.n2232                       5.68447e-05
x1.vss.n2231                       5.64723e-05
x1.vss.n135                        5.60926e-05
x1.vss.n2230                       5.73155e-05
x1.vss.n134                          5.688e-05
x1.vss.n2374                       5.64385e-05
x1.vss.n2229                       5.78053e-05
x1.vss.n133                        5.72917e-05
x1.vss.n2375                       5.67788e-05
x1.vss.n2228                       5.83176e-05
x1.vss.n132                        5.77028e-05
x1.vss.n2376                       5.71124e-05
x1.vss.n124                        5.80976e-05
x1.vss.n122                        5.88568e-05
x1.vss.n126                         5.7438e-05
x1.vss.n2384                       5.94292e-05
x1.vss.n2382                       5.77548e-05
x1.vss.n121                         5.9373e-05
x1.vss.n1715                       5.88062e-05
x1.vss.n1714                       5.92436e-05
x1.vss.n1713                       5.91334e-05
x1.vss.n1638                       5.87698e-05
x1.vss.n1712                        5.9039e-05
x1.vss.n1711                       5.87284e-05
x1.vss.n1710                       5.86894e-05
x1.vss.n1709                       5.89583e-05
x1.vss.n1708                       5.88893e-05
x1.vss.n1705                       5.87718e-05
x1.vss.n1704                       5.87208e-05
x1.vss.n1703                       5.85698e-05
x1.vss.n1702                       5.85472e-05
x1.vss.n1701                       5.86764e-05
x1.vss.n1700                       5.86376e-05
x1.vss.n1699                       5.85275e-05
x1.vss.n1698                       5.85103e-05
x1.vss.n1697                       5.86037e-05
x1.vss.n1696                       5.85738e-05
x1.vss.n1695                       5.84951e-05
x1.vss.n1694                       5.84817e-05
x1.vss.n1693                       5.85474e-05
x1.vss.n1692                       5.85238e-05
x1.vss.n1691                       5.84697e-05
x1.vss.n1690                        5.8459e-05
x1.vss.n1689                       5.85026e-05
x1.vss.n1688                       5.84834e-05
x1.vss.n1687                       5.84492e-05
x1.vss.n1686                       5.84401e-05
x1.vss.n1685                       5.84656e-05
x1.vss.n1684                       5.84489e-05
x1.vss.n1683                       5.84317e-05
x1.vss.n1682                       5.84236e-05
x1.vss.n1681                        5.8433e-05
x1.vss.n1680                       5.84175e-05
x1.vss.n1679                       5.84157e-05
x1.vss.n1678                       5.84079e-05
x1.vss.n1677                       5.84021e-05
x1.vss.n1676                       5.83865e-05
x1.vss.n1675                       5.83999e-05
x1.vss.n1674                       5.83917e-05
x1.vss.n1673                       5.83702e-05
x1.vss.n1672                        5.8353e-05
x1.vss.n1671                       5.83829e-05
x1.vss.n1670                       5.83735e-05
x1.vss.n1669                       5.83345e-05
x1.vss.n1668                       5.83143e-05
x1.vss.n1667                       5.83633e-05
x1.vss.n1666                       5.83519e-05
x1.vss.n1665                       5.82919e-05
x1.vss.n1664                       5.82669e-05
x1.vss.n1661                       5.82107e-05
x1.vss.n1660                       5.81781e-05
x1.vss.n1659                       5.82941e-05
x1.vss.n1658                        5.8275e-05
x1.vss.n1657                       5.81405e-05
x1.vss.n1656                       5.80971e-05
x1.vss.n1655                       5.82529e-05
x1.vss.n1654                       5.82273e-05
x1.vss.n1653                       5.80468e-05
x1.vss.n1652                       5.79886e-05
x1.vss.n1651                       5.81977e-05
x1.vss.n1650                       5.81634e-05
x1.vss.n1649                       5.79212e-05
x1.vss.n1648                       5.78433e-05
x1.vss.n1647                       5.81236e-05
x1.vss.n1646                       5.80769e-05
x1.vss.n1645                       5.77531e-05
x1.vss.n1644                       5.76487e-05
x1.vss.n1643                       5.80216e-05
x1.vss.n1642                       5.79532e-05
x1.vss.n1641                        5.7528e-05
x1.vss.n1640                       5.73886e-05
x1.vss.n129                        5.69252e-05
x1.vss.n1718                       5.80451e-05
x1.vss.n2381                       5.72224e-05
x1.vss.n2380                       5.67428e-05
x1.vss.n2379                       5.65395e-05
x1.vss.n128                        5.69735e-05
x1.vss.n2378                       5.63172e-05
x1.vss.n2377                        5.6704e-05
x1.vss.n131                        5.64198e-05
x1.vss.n130                         5.6078e-05
x1.vss.n2373                        5.6124e-05
x1.vss.n2372                       5.58238e-05
x1.vss.n2371                       5.55565e-05
x1.vss.n136                        5.58184e-05
x1.vss.n2370                       5.52777e-05
x1.vss.n2369                       5.55045e-05
x1.vss.n138                        5.51836e-05
x1.vss.n137                         5.4989e-05
x1.vss.n2365                       5.48564e-05
x1.vss.n2364                       5.46918e-05
x1.vss.n2363                       5.43874e-05
x1.vss.n142                        5.45238e-05
x1.vss.n2362                        5.4077e-05
x1.vss.n2361                       5.41864e-05
x1.vss.n144                        5.38447e-05
x1.vss.n143                        5.37619e-05
x1.vss.n2357                        5.3499e-05
x1.vss.n2356                       5.34431e-05
x1.vss.n2355                       5.31218e-05
x1.vss.n149                        5.31495e-05
x1.vss.n2354                       5.27994e-05
x1.vss.n2353                       5.27962e-05
x1.vss.n151                        5.24392e-05
x1.vss.n150                         5.2477e-05
x1.vss.n2349                       5.20781e-05
x1.vss.n2348                       5.21564e-05
x1.vss.n2347                       5.18392e-05
x1.vss.n156                        5.17127e-05
x1.vss.n2346                       5.15275e-05
x1.vss.n2345                       5.13425e-05
x1.vss.n158                        5.09673e-05
x1.vss.n157                        5.12238e-05
x1.vss.n2341                        5.0588e-05
x1.vss.n2340                       5.09315e-05
x1.vss.n2339                       5.06541e-05
x1.vss.n163                          5.021e-05
x1.vss.n2338                       5.03962e-05
x1.vss.n1785                       5.94396e-05
x1.vss.n1617                       5.90497e-05
x1.vss.n1616                       5.87222e-05
x1.vss.n1784                       5.94444e-05
x1.vss.n1783                       5.90377e-05
x1.vss.n1782                       5.86765e-05
x1.vss.n1779                       5.90032e-05
x1.vss.n1778                       5.94396e-05
x1.vss.n1780                       5.84677e-05
x1.vss.n1777                       5.94328e-05
x1.vss.n1720                       5.89677e-05
x1.vss.n1719                       5.82043e-05
x1.vss.n1776                       5.94277e-05
x1.vss.n1775                       5.89493e-05
x1.vss.n125                         5.7924e-05
x1.vss.n1536                       5.87817e-05
x1.vss.n1531                       5.86984e-05
x1.vss.n1877                       5.87614e-05
x1.vss.n1538                         5.879e-05
x1.vss.n1876                       5.87333e-05
x1.vss.n1721                       5.87996e-05
x1.vss.n1537                       5.87793e-05
x1.vss.n1539                       5.87609e-05
x1.vss.n1722                         5.881e-05
x1.vss.n1543                       5.87959e-05
x1.vss.n1870                       5.87836e-05
x1.vss.n1723                       5.88211e-05
x1.vss.n1544                       5.88113e-05
x1.vss.n1869                        5.8803e-05
x1.vss.n1724                       5.88325e-05
x1.vss.n1545                       5.88259e-05
x1.vss.n1868                       5.88202e-05
x1.vss.n1726                       5.88443e-05
x1.vss.n1725                       5.88397e-05
x1.vss.n1546                       5.88358e-05
x1.vss.n1727                       5.88563e-05
x1.vss.n1550                       5.88532e-05
x1.vss.n1862                       5.88505e-05
x1.vss.n1728                       5.88684e-05
x1.vss.n1551                       5.88663e-05
x1.vss.n1861                       5.88645e-05
x1.vss.n1729                       5.88806e-05
x1.vss.n1552                       5.88792e-05
x1.vss.n1860                       5.88779e-05
x1.vss.n1731                       5.88929e-05
x1.vss.n1730                       5.88919e-05
x1.vss.n1553                       5.88911e-05
x1.vss.n1732                       5.89052e-05
x1.vss.n1557                       5.89045e-05
x1.vss.n1854                        5.8904e-05
x1.vss.n1733                       5.89175e-05
x1.vss.n1558                       5.89171e-05
x1.vss.n1853                       5.89167e-05
x1.vss.n1734                       5.89299e-05
x1.vss.n1559                       5.89296e-05
x1.vss.n1852                       5.89294e-05
x1.vss.n1736                       5.89423e-05
x1.vss.n1735                       5.89421e-05
x1.vss.n1560                       5.89419e-05
x1.vss.n1737                       5.89547e-05
x1.vss.n1564                       5.89545e-05
x1.vss.n1846                       5.89545e-05
x1.vss.n1738                       5.89671e-05
x1.vss.n1565                        5.8967e-05
x1.vss.n1845                       5.89669e-05
x1.vss.n1739                       5.89794e-05
x1.vss.n1566                       5.89794e-05
x1.vss.n1844                       5.89794e-05
x1.vss.n1741                       5.89918e-05
x1.vss.n1740                       5.89918e-05
x1.vss.n1567                       5.89919e-05
x1.vss.n1742                       5.90042e-05
x1.vss.n1571                       5.90043e-05
x1.vss.n1838                       5.90043e-05
x1.vss.n1743                       5.90166e-05
x1.vss.n1572                       5.90167e-05
x1.vss.n1837                       5.90167e-05
x1.vss.n1744                        5.9029e-05
x1.vss.n1573                       5.90291e-05
x1.vss.n1836                       5.90291e-05
x1.vss.n1746                       5.90414e-05
x1.vss.n1745                       5.90415e-05
x1.vss.n1574                       5.90415e-05
x1.vss.n1747                       5.90538e-05
x1.vss.n1578                       5.90539e-05
x1.vss.n1830                       5.90539e-05
x1.vss.n1748                       5.90662e-05
x1.vss.n1579                       5.90662e-05
x1.vss.n1829                       5.90663e-05
x1.vss.n1749                       5.90786e-05
x1.vss.n1580                       5.90786e-05
x1.vss.n1828                       5.90787e-05
x1.vss.n1751                       5.90909e-05
x1.vss.n1750                        5.9091e-05
x1.vss.n1581                       5.90911e-05
x1.vss.n1752                       5.91033e-05
x1.vss.n1585                       5.91033e-05
x1.vss.n1822                       5.91034e-05
x1.vss.n1753                       5.91157e-05
x1.vss.n1586                       5.91156e-05
x1.vss.n1821                       5.91157e-05
x1.vss.n1754                       5.91281e-05
x1.vss.n1587                       5.91279e-05
x1.vss.n1820                       5.91279e-05
x1.vss.n1756                       5.91404e-05
x1.vss.n1755                       5.91402e-05
x1.vss.n1588                         5.914e-05
x1.vss.n1757                       5.91528e-05
[...]
 Reference value :  7.23262e-06
 Reference value :  7.25262e-06
 Reference value :  7.27262e-06
 Reference value :  7.29262e-06
 Reference value :  7.32262e-06
 Reference value :  7.34262e-06
 Reference value :  7.37262e-06
 Reference value :  7.39262e-06
 Reference value :  7.41262e-06
 Reference value :  7.44262e-06
 Reference value :  7.46262e-06
 Reference value :  7.48262e-06
 Reference value :  7.50262e-06
 Reference value :  7.52262e-06
 Reference value :  7.54262e-06
 Reference value :  7.56262e-06
 Reference value :  7.58262e-06
 Reference value :  7.60262e-06
 Reference value :  7.62262e-06
 Reference value :  7.64262e-06
 Reference value :  7.66262e-06
 Reference value :  7.68262e-06
 Reference value :  7.70262e-06
 Reference value :  7.72262e-06
 Reference value :  7.74262e-06
 Reference value :  7.76262e-06
 Reference value :  7.78262e-06
 Reference value :  7.80262e-06
 Reference value :  7.82262e-06
 Reference value :  7.84262e-06
 Reference value :  7.85262e-06
 Reference value :  7.87262e-06
 Reference value :  7.89262e-06
 Reference value :  7.91262e-06
 Reference value :  7.93262e-06
 Reference value :  7.95262e-06
 Reference value :  7.97262e-06
 Reference value :  7.99262e-06
 Reference value :  8.01262e-06
 Reference value :  8.03262e-06
 Reference value :  8.05262e-06
 Reference value :  8.07262e-06
 Reference value :  8.09262e-06
 Reference value :  8.11262e-06
 Reference value :  8.13262e-06
 Reference value :  8.15262e-06
 Reference value :  8.17262e-06
 Reference value :  8.19262e-06
 Reference value :  8.21262e-06
 Reference value :  8.23262e-06
 Reference value :  8.26262e-06
 Reference value :  8.28262e-06
 Reference value :  8.30262e-06
 Reference value :  8.32262e-06
 Reference value :  8.35262e-06
 Reference value :  8.38262e-06
 Reference value :  8.41262e-06
 Reference value :  8.43262e-06
 Reference value :  8.45262e-06
 Reference value :  8.47262e-06
 Reference value :  8.49262e-06
 Reference value :  8.51262e-06
 Reference value :  8.53262e-06
 Reference value :  8.55262e-06
 Reference value :  8.57262e-06
 Reference value :  8.60262e-06
 Reference value :  8.62262e-06
 Reference value :  8.64262e-06
 Reference value :  8.66262e-06
 Reference value :  8.68262e-06
 Reference value :  8.70262e-06
 Reference value :  8.72262e-06
 Reference value :  8.74262e-06
 Reference value :  8.76262e-06
 Reference value :  8.78262e-06
 Reference value :  8.80262e-06
 Reference value :  8.82262e-06
 Reference value :  8.84262e-06
 Reference value :  8.86262e-06
 Reference value :  8.88262e-06
 Reference value :  8.90262e-06
 Reference value :  8.92262e-06
 Reference value :  8.94262e-06
 Reference value :  8.96262e-06
 Reference value :  8.98262e-06
 Reference value :  9.00262e-06
 Reference value :  9.02262e-06
 Reference value :  9.04262e-06
 Reference value :  9.06262e-06
 Reference value :  9.08262e-06
 Reference value :  9.10262e-06
 Reference value :  9.12262e-06
 Reference value :  9.14262e-06
 Reference value :  9.16262e-06
 Reference value :  9.18262e-06
 Reference value :  9.20262e-06
 Reference value :  9.22262e-06
 Reference value :  9.24262e-06
 Reference value :  9.26262e-06
 Reference value :  9.28262e-06
 Reference value :  9.31262e-06
 Reference value :  9.33262e-06
 Reference value :  9.35262e-06
 Reference value :  9.37262e-06
 Reference value :  9.39262e-06
 Reference value :  9.41262e-06
 Reference value :  9.43262e-06
 Reference value :  9.45262e-06
 Reference value :  9.47262e-06
 Reference value :  9.49262e-06
 Reference value :  9.51262e-06
 Reference value :  9.53262e-06
 Reference value :  9.55262e-06
 Reference value :  9.57262e-06
 Reference value :  9.59262e-06
 Reference value :  9.61262e-06
 Reference value :  9.63262e-06
 Reference value :  9.65262e-06
 Reference value :  9.67262e-06
 Reference value :  9.70262e-06
 Reference value :  9.72262e-06
 Reference value :  9.75262e-06
 Reference value :  9.78262e-06
 Reference value :  9.81262e-06
 Reference value :  9.84262e-06
 Reference value :  9.87262e-06
 Reference value :  9.89262e-06
 Reference value :  9.91262e-06
 Reference value :  9.94262e-06
 Reference value :  9.97262e-06
 Reference value :  9.99262e-06
 Reference value :  1.00126e-05
 Reference value :  1.00326e-05
 Reference value :  1.00626e-05
 Reference value :  1.00926e-05
 Reference value :  1.01126e-05
 Reference value :  1.01326e-05
 Reference value :  1.01526e-05
 Reference value :  1.01726e-05
 Reference value :  1.01926e-05
 Reference value :  1.02126e-05
 Reference value :  1.02326e-05
 Reference value :  1.02526e-05
 Reference value :  1.02826e-05
 Reference value :  1.03026e-05
 Reference value :  1.03226e-05
 Reference value :  1.03426e-05
 Reference value :  1.03626e-05
 Reference value :  1.03826e-05
 Reference value :  1.04026e-05
 Reference value :  1.04126e-05
 Reference value :  1.04326e-05
 Reference value :  1.04526e-05
 Reference value :  1.04726e-05
 Reference value :  1.04926e-05
 Reference value :  1.05126e-05
 Reference value :  1.05326e-05
 Reference value :  1.05526e-05
 Reference value :  1.05726e-05
 Reference value :  1.05926e-05
 Reference value :  1.06126e-05
 Reference value :  1.06326e-05
 Reference value :  1.06526e-05
 Reference value :  1.06726e-05
 Reference value :  1.06926e-05
 Reference value :  1.07126e-05
 Reference value :  1.07326e-05
 Reference value :  1.07526e-05
 Reference value :  1.07726e-05
 Reference value :  1.07926e-05
 Reference value :  1.08126e-05
 Reference value :  1.08326e-05
 Reference value :  1.08526e-05
 Reference value :  1.08726e-05
 Reference value :  1.08926e-05
 Reference value :  1.09126e-05
 Reference value :  1.09326e-05
 Reference value :  1.09526e-05
 Reference value :  1.09826e-05
 Reference value :  1.10026e-05
 Reference value :  1.10226e-05
 Reference value :  1.10426e-05
 Reference value :  1.10626e-05
 Reference value :  1.10826e-05
 Reference value :  1.11026e-05
 Reference value :  1.11326e-05
 Reference value :  1.11626e-05
 Reference value :  1.11826e-05
 Reference value :  1.12026e-05
 Reference value :  1.12226e-05
 Reference value :  1.12426e-05
 Reference value :  1.12626e-05
 Reference value :  1.12826e-05
 Reference value :  1.13026e-05
 Reference value :  1.13226e-05
 Reference value :  1.13426e-05
 Reference value :  1.13626e-05
 Reference value :  1.13826e-05
 Reference value :  1.14026e-05
 Reference value :  1.14226e-05
 Reference value :  1.14426e-05
 Reference value :  1.14626e-05
 Reference value :  1.14826e-05
 Reference value :  1.15026e-05
 Reference value :  1.15226e-05
 Reference value :  1.15426e-05
 Reference value :  1.15626e-05
 Reference value :  1.15826e-05
 Reference value :  1.16026e-05
 Reference value :  1.16226e-05
 Reference value :  1.16426e-05
 Reference value :  1.16626e-05
 Reference value :  1.16826e-05
 Reference value :  1.17026e-05
 Reference value :  1.17226e-05
 Reference value :  1.17426e-05
 Reference value :  1.17626e-05
 Reference value :  1.17826e-05
 Reference value :  1.18026e-05
 Reference value :  1.18226e-05
 Reference value :  1.18426e-05
 Reference value :  1.18626e-05
 Reference value :  1.18826e-05
 Reference value :  1.19026e-05
 Reference value :  1.19226e-05
 Reference value :  1.19426e-05
 Reference value :  1.19626e-05
 Reference value :  1.19826e-05
 Reference value :  1.20026e-05
 Reference value :  1.20226e-05
 Reference value :  1.20326e-05
 Reference value :  1.20526e-05
 Reference value :  1.20726e-05
 Reference value :  1.20926e-05
 Reference value :  1.21126e-05
 Reference value :  1.21326e-05
 Reference value :  1.21526e-05
 Reference value :  1.21726e-05
 Reference value :  1.21926e-05
 Reference value :  1.22126e-05
 Reference value :  1.22326e-05
 Reference value :  1.22526e-05
 Reference value :  1.22726e-05
 Reference value :  1.22926e-05
 Reference value :  1.23126e-05
 Reference value :  1.23326e-05
 Reference value :  1.23526e-05
 Reference value :  1.23726e-05
 Reference value :  1.23926e-05
 Reference value :  1.24126e-05
 Reference value :  1.24326e-05
 Reference value :  1.24526e-05
 Reference value :  1.24726e-05
 Reference value :  1.25026e-05
 Reference value :  1.25226e-05
 Reference value :  1.25426e-05
 Reference value :  1.25626e-05
 Reference value :  1.25826e-05
 Reference value :  1.26126e-05
 Reference value :  1.26326e-05
 Reference value :  1.26626e-05
 Reference value :  1.26926e-05
 Reference value :  1.27126e-05
 Reference value :  1.27326e-05
 Reference value :  1.27626e-05
 Reference value :  1.27926e-05
 Reference value :  1.28126e-05
 Reference value :  1.28326e-05
 Reference value :  1.28526e-05
 Reference value :  1.28726e-05
 Reference value :  1.28926e-05
 Reference value :  1.29126e-05
 Reference value :  1.29326e-05
 Reference value :  1.29526e-05
 Reference value :  1.29726e-05
 Reference value :  1.29926e-05
 Reference value :  1.30126e-05
 Reference value :  1.30326e-05
 Reference value :  1.30526e-05
 Reference value :  1.30726e-05
 Reference value :  1.30926e-05
 Reference value :  1.31126e-05
 Reference value :  1.31326e-05
 Reference value :  1.31526e-05
 Reference value :  1.31726e-05
 Reference value :  1.31926e-05
 Reference value :  1.32126e-05
 Reference value :  1.32326e-05
 Reference value :  1.32526e-05
 Reference value :  1.32726e-05
 Reference value :  1.32926e-05
 Reference value :  1.33126e-05
 Reference value :  1.33326e-05
 Reference value :  1.33526e-05
 Reference value :  1.33726e-05
 Reference value :  1.33926e-05
 Reference value :  1.34126e-05
 Reference value :  1.34326e-05
 Reference value :  1.34626e-05
 Reference value :  1.34826e-05
 Reference value :  1.35026e-05
 Reference value :  1.35226e-05
 Reference value :  1.35426e-05
 Reference value :  1.35626e-05
 Reference value :  1.35826e-05
 Reference value :  1.36026e-05
 Reference value :  1.36226e-05
 Reference value :  1.36426e-05
 Reference value :  1.36626e-05
 Reference value :  1.36826e-05
 Reference value :  1.37026e-05
 Reference value :  1.37226e-05
 Reference value :  1.37426e-05
 Reference value :  1.37626e-05
 Reference value :  1.37826e-05
 Reference value :  1.38026e-05
 Reference value :  1.38226e-05
 Reference value :  1.38426e-05
 Reference value :  1.38626e-05
 Reference value :  1.38826e-05
 Reference value :  1.39026e-05
 Reference value :  1.39226e-05
 Reference value :  1.39426e-05
 Reference value :  1.39626e-05
 Reference value :  1.39826e-05
 Reference value :  1.40026e-05
 Reference value :  1.40226e-05
 Reference value :  1.40426e-05
 Reference value :  1.40626e-05
 Reference value :  1.40826e-05
 Reference value :  1.41026e-05
 Reference value :  1.41226e-05
 Reference value :  1.41426e-05
 Reference value :  1.41626e-05
 Reference value :  1.41826e-05
 Reference value :  1.42026e-05
 Reference value :  1.42226e-05
 Reference value :  1.42426e-05
 Reference value :  1.42626e-05
 Reference value :  1.42826e-05
 Reference value :  1.43026e-05
 Reference value :  1.43226e-05
 Reference value :  1.43426e-05
 Reference value :  1.43626e-05
 Reference value :  1.43826e-05
 Reference value :  1.44026e-05
 Reference value :  1.44226e-05
 Reference value :  1.44426e-05
 Reference value :  1.44626e-05
 Reference value :  1.44826e-05
 Reference value :  1.45026e-05
 Reference value :  1.45226e-05
 Reference value :  1.45426e-05
 Reference value :  1.45526e-05
 Reference value :  1.45726e-05
 Reference value :  1.45926e-05
 Reference value :  1.46126e-05
 Reference value :  1.46326e-05
 Reference value :  1.46526e-05
 Reference value :  1.46726e-05
 Reference value :  1.46926e-05
 Reference value :  1.47126e-05
 Reference value :  1.47326e-05
 Reference value :  1.47526e-05
 Reference value :  1.47726e-05
 Reference value :  1.47926e-05
 Reference value :  1.48126e-05
 Reference value :  1.48326e-05
 Reference value :  1.48526e-05
 Reference value :  1.48726e-05
 Reference value :  1.48926e-05
 Reference value :  1.49126e-05
 Reference value :  1.49326e-05
 Reference value :  1.49526e-05
 Reference value :  1.49726e-05
 Reference value :  1.49926e-05
 Reference value :  1.50126e-05
 Reference value :  1.50326e-05
 Reference value :  1.50526e-05
 Reference value :  1.50726e-05
 Reference value :  1.50926e-05
 Reference value :  1.51126e-05
 Reference value :  1.51326e-05
 Reference value :  1.51526e-05
 Reference value :  1.51826e-05
 Reference value :  1.52026e-05
 Reference value :  1.52226e-05
 Reference value :  1.52426e-05
 Reference value :  1.52626e-05
 Reference value :  1.52826e-05
 Reference value :  1.53026e-05
 Reference value :  1.53226e-05
 Reference value :  1.53426e-05
 Reference value :  1.53626e-05
 Reference value :  1.53826e-05
 Reference value :  1.54026e-05
 Reference value :  1.54326e-05
 Reference value :  1.54526e-05
 Reference value :  1.54826e-05
 Reference value :  1.55026e-05
 Reference value :  1.55226e-05
 Reference value :  1.55426e-05
 Reference value :  1.55626e-05
 Reference value :  1.55826e-05
 Reference value :  1.56026e-05
 Reference value :  1.56226e-05
 Reference value :  1.56426e-05
 Reference value :  1.56626e-05
 Reference value :  1.56826e-05
 Reference value :  1.57026e-05
 Reference value :  1.57226e-05
 Reference value :  1.57426e-05
 Reference value :  1.57626e-05
 Reference value :  1.57826e-05
 Reference value :  1.58026e-05
 Reference value :  1.58226e-05
 Reference value :  1.58426e-05
 Reference value :  1.58626e-05
 Reference value :  1.58826e-05
 Reference value :  1.59026e-05
 Reference value :  1.59226e-05
 Reference value :  1.59426e-05
 Reference value :  1.59626e-05
 Reference value :  1.59826e-05
 Reference value :  1.60026e-05
 Reference value :  1.60226e-05
 Reference value :  1.60426e-05
 Reference value :  1.60626e-05
 Reference value :  1.60826e-05
 Reference value :  1.61026e-05
 Reference value :  1.61226e-05
 Reference value :  1.61426e-05
 Reference value :  1.61626e-05
 Reference value :  1.61826e-05
 Reference value :  1.62026e-05
 Reference value :  1.62226e-05
 Reference value :  1.62426e-05
 Reference value :  1.62626e-05
 Reference value :  1.62926e-05
 Reference value :  1.63226e-05
 Reference value :  1.63426e-05
 Reference value :  1.63626e-05
 Reference value :  1.63826e-05
 Reference value :  1.64026e-05
 Reference value :  1.64226e-05
 Reference value :  1.64526e-05
 Reference value :  1.64826e-05
 Reference value :  1.65026e-05
 Reference value :  1.65226e-05
 Reference value :  1.65526e-05
 Reference value :  1.65726e-05
 Reference value :  1.65926e-05
 Reference value :  1.66226e-05
 Reference value :  1.66426e-05
 Reference value :  1.66626e-05
 Reference value :  1.66826e-05
 Reference value :  1.67026e-05
 Reference value :  1.67226e-05
 Reference value :  1.67426e-05
 Reference value :  1.67626e-05
 Reference value :  1.67826e-05
 Reference value :  1.68026e-05
 Reference value :  1.68226e-05
 Reference value :  1.68426e-05
 Reference value :  1.68626e-05
 Reference value :  1.68826e-05
 Reference value :  1.69026e-05
 Reference value :  1.69226e-05
 Reference value :  1.69426e-05
 Reference value :  1.69626e-05
 Reference value :  1.69826e-05
 Reference value :  1.70026e-05
 Reference value :  1.70226e-05
 Reference value :  1.70426e-05
 Reference value :  1.70626e-05
 Reference value :  1.70826e-05
 Reference value :  1.71026e-05
 Reference value :  1.71226e-05
 Reference value :  1.71426e-05
 Reference value :  1.71626e-05
 Reference value :  1.71826e-05
 Reference value :  1.72026e-05
 Reference value :  1.72226e-05
 Reference value :  1.72426e-05
 Reference value :  1.72626e-05
 Reference value :  1.72826e-05
 Reference value :  1.73026e-05
 Reference value :  1.73226e-05
 Reference value :  1.73426e-05
 Reference value :  1.73626e-05
 Reference value :  1.73826e-05
 Reference value :  1.74026e-05
 Reference value :  1.74226e-05
 Reference value :  1.74426e-05
 Reference value :  1.74626e-05
 Reference value :  1.74826e-05
 Reference value :  1.75026e-05
 Reference value :  1.75226e-05
 Reference value :  1.75326e-05
 Reference value :  1.75526e-05
 Reference value :  1.75726e-05
 Reference value :  1.75926e-05
 Reference value :  1.76126e-05
 Reference value :  1.76326e-05
 Reference value :  1.76526e-05
 Reference value :  1.76826e-05
 Reference value :  1.77026e-05
 Reference value :  1.77226e-05
 Reference value :  1.77526e-05
 Reference value :  1.77726e-05
 Reference value :  1.77926e-05
 Reference value :  1.78126e-05
 Reference value :  1.78326e-05
 Reference value :  1.78526e-05
 Reference value :  1.78726e-05
 Reference value :  1.78926e-05
 Reference value :  1.79126e-05
 Reference value :  1.79326e-05
 Reference value :  1.79526e-05
 Reference value :  1.79726e-05
 Reference value :  1.79926e-05
 Reference value :  1.80126e-05
 Reference value :  1.80426e-05
 Reference value :  1.80726e-05
 Reference value :  1.80926e-05
 Reference value :  1.81126e-05
 Reference value :  1.81326e-05
 Reference value :  1.81526e-05
 Reference value :  1.81726e-05
 Reference value :  1.81926e-05
 Reference value :  1.82126e-05
 Reference value :  1.82326e-05
 Reference value :  1.82526e-05
 Reference value :  1.82726e-05
 Reference value :  1.82926e-05
 Reference value :  1.83126e-05
 Reference value :  1.83326e-05
 Reference value :  1.83526e-05
 Reference value :  1.83726e-05
 Reference value :  1.83926e-05
 Reference value :  1.84126e-05
 Reference value :  1.84326e-05
 Reference value :  1.84526e-05
 Reference value :  1.84726e-05
 Reference value :  1.84926e-05
 Reference value :  1.85126e-05
 Reference value :  1.85326e-05
 Reference value :  1.85526e-05
 Reference value :  1.85726e-05
 Reference value :  1.85926e-05
 Reference value :  1.86126e-05
 Reference value :  1.86326e-05
 Reference value :  1.86526e-05
 Reference value :  1.86726e-05
 Reference value :  1.86926e-05
 Reference value :  1.87126e-05
 Reference value :  1.87326e-05
 Reference value :  1.87526e-05
 Reference value :  1.87726e-05
 Reference value :  1.87926e-05
 Reference value :  1.88126e-05
 Reference value :  1.88326e-05
 Reference value :  1.88526e-05
 Reference value :  1.88726e-05
 Reference value :  1.88926e-05
 Reference value :  1.89126e-05
 Reference value :  1.89326e-05
 Reference value :  1.89526e-05
 Reference value :  1.89726e-05
 Reference value :  1.89926e-05
 Reference value :  1.90126e-05
 Reference value :  1.90326e-05
 Reference value :  1.90526e-05
 Reference value :  1.90726e-05
 Reference value :  1.90926e-05
 Reference value :  1.91126e-05
 Reference value :  1.91326e-05
 Reference value :  1.91526e-05
 Reference value :  1.91726e-05
 Reference value :  1.91926e-05
 Reference value :  1.92026e-05
 Reference value :  1.92226e-05
 Reference value :  1.92426e-05
 Reference value :  1.92626e-05
 Reference value :  1.92826e-05
 Reference value :  1.93026e-05
 Reference value :  1.93226e-05
 Reference value :  1.93426e-05
 Reference value :  1.93626e-05
 Reference value :  1.93826e-05
 Reference value :  1.94026e-05
 Reference value :  1.94226e-05
 Reference value :  1.94426e-05
 Reference value :  1.94626e-05
 Reference value :  1.94826e-05
 Reference value :  1.95026e-05
 Reference value :  1.95226e-05
 Reference value :  1.95426e-05
 Reference value :  1.95626e-05
 Reference value :  1.95826e-05
 Reference value :  1.96026e-05
 Reference value :  1.96326e-05
 Reference value :  1.96526e-05
 Reference value :  1.96726e-05
 Reference value :  1.96926e-05
 Reference value :  1.97126e-05
 Reference value :  1.97326e-05
 Reference value :  1.97526e-05
 Reference value :  1.97726e-05
 Reference value :  1.97926e-05
 Reference value :  1.98126e-05
 Reference value :  1.98426e-05
 Reference value :  1.98626e-05
 Reference value :  1.98826e-05
 Reference value :  1.99026e-05
 Reference value :  1.99326e-05
 Reference value :  1.99526e-05
 Reference value :  1.99726e-05
 Reference value :  1.99926e-05
No. of Data Rows : 2025
 meas tran sr_pos max deriv(v(vout)) failed!

 meas tran sr_neg min deriv(v(vout)) failed!

Note: Simulation executed from .control section 
